
     RDKit          3D

 77 83  0  0  0  0  0  0  0  0999 V2000
   -6.6079   -2.2498    1.0782 C   0  0  0  0  0  0  0  0  0  0  0  0
   -6.1971   -1.4546   -0.1670 C   0  0  0  0  0  0  0  0  0  0  0  0
   -6.5691   -2.1858   -1.4614 C   0  0  0  0  0  0  0  0  0  0  0  0
   -6.9241   -0.1013   -0.1427 C   0  0  0  0  0  0  0  0  0  0  0  0
   -4.7883   -1.1139   -0.1405 O   0  0  0  0  0  0  0  0  0  0  0  0
   -3.8353   -2.0809   -0.1287 C   0  0  0  0  0  0  0  0  0  0  0  0
   -4.0699   -3.2826   -0.1528 O   0  0  0  0  0  0  0  0  0  0  0  0
   -2.5561   -1.5556   -0.0766 N   0  0  0  0  0  0  0  0  0  0  0  0
   -1.4319   -2.4859   -0.2747 C   0  0  0  0  0  0  0  0  0  0  0  0
   -0.0700   -1.9600    0.2406 C   0  0  0  0  0  0  0  0  0  0  0  0
    0.1225   -0.6059   -0.2484 N   0  0  0  0  0  0  0  0  0  0  0  0
   -0.9557    0.2959    0.2685 C   0  0  2  0  0  0  0  0  0  0  0  0
   -2.2896   -0.1226   -0.3414 C   0  0  0  0  0  0  0  0  0  0  0  0
   -0.3745    1.6078   -0.0803 C   0  0  0  0  0  0  0  0  0  0  0  0
    1.0181    1.4921   -0.2310 C   0  0  0  0  0  0  0  0  0  0  0  0
    1.5322    2.7323   -0.4947 C   0  0  0  0  0  0  0  0  0  0  0  0
    2.7911    3.0591   -0.7801 O   0  0  0  0  0  0  0  0  0  0  0  0
    0.4514    3.6364   -0.4813 N   0  0  0  0  0  0  0  0  0  0  0  0
    0.5445    5.0441   -0.6844 C   0  0  0  0  0  0  0  0  0  0  0  0
   -0.4306    5.7124   -1.4373 C   0  0  0  0  0  0  0  0  0  0  0  0
   -0.3302    7.0907   -1.6362 C   0  0  0  0  0  0  0  0  0  0  0  0
    0.7335    7.8028   -1.0818 C   0  0  0  0  0  0  0  0  0  0  0  0
    1.7022    7.1406   -0.3288 C   0  0  0  0  0  0  0  0  0  0  0  0
    1.6134    5.7622   -0.1311 C   0  0  0  0  0  0  0  0  0  0  0  0
   -0.7316    2.9192   -0.2124 C   0  0  0  0  0  0  0  0  0  0  0  0
   -1.9320    3.4654   -0.0302 O   0  0  0  0  0  0  0  0  0  0  0  0
    1.4299    0.0733   -0.0724 C   0  0  1  0  0  0  0  0  0  0  0  0
    2.1350   -0.2068    1.2769 C   0  0  0  0  0  0  0  0  0  0  0  0
    1.6675   -0.0756    2.4018 O   0  0  0  0  0  0  0  0  0  0  0  0
    3.4212   -0.6759    0.9609 N   0  0  0  0  0  0  0  0  0  0  0  0
    4.3613   -1.1333    1.9549 C   0  0  0  0  0  0  0  0  0  0  0  0
    4.2508   -2.6187    2.2151 C   0  0  0  0  0  0  0  0  0  0  0  0
    3.1598   -3.1348    2.9318 C   0  0  0  0  0  0  0  0  0  0  0  0
    3.0446   -4.5064    3.1626 C   0  0  0  0  0  0  0  0  0  0  0  0
    4.0183   -5.3780    2.6816 C   0  0  0  0  0  0  0  0  0  0  0  0
    5.1081   -4.8795    1.9704 C   0  0  0  0  0  0  0  0  0  0  0  0
    5.2246   -3.5074    1.7384 C   0  0  0  0  0  0  0  0  0  0  0  0
    3.6170   -0.7257   -0.4297 C   0  0  0  0  0  0  0  0  0  0  0  0
    4.7347   -1.1379   -1.1325 C   0  0  0  0  0  0  0  0  0  0  0  0
    4.6812   -1.1133   -2.5298 C   0  0  0  0  0  0  0  0  0  0  0  0
    3.5237   -0.6835   -3.1979 C   0  0  0  0  0  0  0  0  0  0  0  0
    2.4014   -0.2691   -2.4790 C   0  0  0  0  0  0  0  0  0  0  0  0
    2.4645   -0.2861   -1.0922 C   0  0  0  0  0  0  0  0  0  0  0  0
   -6.1873   -3.2602    1.0784 H   0  0  0  0  0  0  0  0  0  0  0  0
   -7.6966   -2.3494    1.1452 H   0  0  0  0  0  0  0  0  0  0  0  0
   -6.2472   -1.7593    1.9881 H   0  0  0  0  0  0  0  0  0  0  0  0
   -7.6535   -2.3116   -1.5481 H   0  0  0  0  0  0  0  0  0  0  0  0
   -6.1192   -3.1816   -1.5134 H   0  0  0  0  0  0  0  0  0  0  0  0
   -6.2116   -1.6333   -2.3380 H   0  0  0  0  0  0  0  0  0  0  0  0
   -6.6490    0.4735    0.7494 H   0  0  0  0  0  0  0  0  0  0  0  0
   -6.6384    0.5111   -1.0061 H   0  0  0  0  0  0  0  0  0  0  0  0
   -8.0125   -0.2242   -0.1518 H   0  0  0  0  0  0  0  0  0  0  0  0
   -1.3695   -2.6734   -1.3544 H   0  0  0  0  0  0  0  0  0  0  0  0
   -1.6560   -3.4433    0.2089 H   0  0  0  0  0  0  0  0  0  0  0  0
    0.7214   -2.6255   -0.1221 H   0  0  0  0  0  0  0  0  0  0  0  0
   -0.0587   -1.9932    1.3365 H   0  0  0  0  0  0  0  0  0  0  0  0
   -1.0131    0.2196    1.3641 H   0  0  0  0  0  0  0  0  0  0  0  0
   -3.0965    0.4950    0.0677 H   0  0  0  0  0  0  0  0  0  0  0  0
   -2.2965    0.0133   -1.4306 H   0  0  0  0  0  0  0  0  0  0  0  0
    2.7931    3.8759   -1.3115 H   0  0  0  0  0  0  0  0  0  0  0  0
   -1.2498    5.1754   -1.9105 H   0  0  0  0  0  0  0  0  0  0  0  0
   -1.0775    7.6108   -2.2317 H   0  0  0  0  0  0  0  0  0  0  0  0
    0.8069    8.8769   -1.2354 H   0  0  0  0  0  0  0  0  0  0  0  0
    2.5204    7.7032    0.1177 H   0  0  0  0  0  0  0  0  0  0  0  0
    2.3583    5.2761    0.4985 H   0  0  0  0  0  0  0  0  0  0  0  0
   -1.8213    4.4075    0.1913 H   0  0  0  0  0  0  0  0  0  0  0  0
    4.1712   -0.6019    2.8961 H   0  0  0  0  0  0  0  0  0  0  0  0
    5.3777   -0.8579    1.6511 H   0  0  0  0  0  0  0  0  0  0  0  0
    2.3905   -2.4672    3.3171 H   0  0  0  0  0  0  0  0  0  0  0  0
    2.1946   -4.8930    3.7189 H   0  0  0  0  0  0  0  0  0  0  0  0
    3.9280   -6.4459    2.8603 H   0  0  0  0  0  0  0  0  0  0  0  0
    5.8677   -5.5601    1.5942 H   0  0  0  0  0  0  0  0  0  0  0  0
    6.0834   -3.1392    1.1828 H   0  0  0  0  0  0  0  0  0  0  0  0
    5.6360   -1.4725   -0.6358 H   0  0  0  0  0  0  0  0  0  0  0  0
    5.5457   -1.4329   -3.1072 H   0  0  0  0  0  0  0  0  0  0  0  0
    3.5000   -0.6754   -4.2852 H   0  0  0  0  0  0  0  0  0  0  0  0
    1.5005    0.0587   -2.9889 H   0  0  0  0  0  0  0  0  0  0  0  0
  1  2  1  0
  2  3  1  0
  2  4  1  0
  2  5  1  0
  5  6  1  0
  6  7  2  0
  6  8  1  0
  8  9  1  0
  9 10  1  0
 10 11  1  0
 11 12  1  0
 12 13  1  0
 12 14  1  0
 14 15  1  0
 15 16  2  0
 16 17  1  0
 16 18  1  0
 18 19  1  0
 19 20  2  0
 20 21  1  0
 21 22  2  0
 22 23  1  0
 23 24  2  0
 18 25  1  0
 25 26  1  0
 15 27  1  0
 27 28  1  0
 28 29  2  0
 28 30  1  0
 30 31  1  0
 31 32  1  0
 32 33  2  0
 33 34  1  0
 34 35  2  0
 35 36  1  0
 36 37  2  0
 30 38  1  0
 38 39  2  0
 39 40  1  0
 40 41  2  0
 41 42  1  0
 42 43  2  0
 13  8  1  0
 25 14  2  0
 43 27  1  0
 27 11  1  6
 37 32  1  0
 43 38  1  0
 24 19  1  0
  1 44  1  0
  1 45  1  0
  1 46  1  0
  3 47  1  0
  3 48  1  0
  3 49  1  0
  4 50  1  0
  4 51  1  0
  4 52  1  0
  9 53  1  0
  9 54  1  0
 10 55  1  0
 10 56  1  0
 12 57  1  1
 13 58  1  0
 13 59  1  0
 17 60  1  0
 20 61  1  0
 21 62  1  0
 22 63  1  0
 23 64  1  0
 24 65  1  0
 26 66  1  0
 31 67  1  0
 31 68  1  0
 33 69  1  0
 34 70  1  0
 35 71  1  0
 36 72  1  0
 37 73  1  0
 39 74  1  0
 40 75  1  0
 41 76  1  0
 42 77  1  0
M  END
$$$$
