
     RDKit          3D

 39 40  0  0  0  0  0  0  0  0999 V2000
   -6.2586    1.1887   -0.3077 C   0  0  0  0  0  0  0  0  0  0  0  0
   -5.0665    0.8086   -0.9811 O   0  0  0  0  0  0  0  0  0  0  0  0
   -4.0210    0.3730   -0.2119 C   0  0  0  0  0  0  0  0  0  0  0  0
   -4.0041    0.3618    1.1838 C   0  0  0  0  0  0  0  0  0  0  0  0
   -2.8890   -0.1313    1.8731 C   0  0  0  0  0  0  0  0  0  0  0  0
   -1.7792   -0.6312    1.1795 C   0  0  0  0  0  0  0  0  0  0  0  0
   -0.6184   -1.1647    1.9588 C   0  0  0  0  0  0  0  0  0  0  0  0
   -0.4550   -0.7578    3.1824 N   0  0  0  0  0  0  0  0  0  0  0  0
    0.2464   -2.0815    1.3984 N   0  0  0  0  0  0  0  0  0  0  0  0
    1.5781   -1.8882    1.8341 O   0  0  0  0  0  0  0  0  0  0  0  0
    2.3650   -1.3302    0.8539 C   0  0  0  0  0  0  0  0  0  0  0  0
    1.9746   -1.1192   -0.2895 O   0  0  0  0  0  0  0  0  0  0  0  0
    3.6167   -1.0852    1.3849 O   0  0  0  0  0  0  0  0  0  0  0  0
    4.4745   -0.4753    0.4711 C   0  0  0  0  0  0  0  0  0  0  0  0
    4.4927    0.9152    0.3743 C   0  0  0  0  0  0  0  0  0  0  0  0
    5.3843    1.5221   -0.5085 C   0  0  0  0  0  0  0  0  0  0  0  0
    6.2542    0.7395   -1.2715 C   0  0  0  0  0  0  0  0  0  0  0  0
    6.2399   -0.6521   -1.1505 C   0  0  0  0  0  0  0  0  0  0  0  0
    5.3511   -1.2662   -0.2693 C   0  0  0  0  0  0  0  0  0  0  0  0
   -1.7804   -0.6061   -0.2163 C   0  0  0  0  0  0  0  0  0  0  0  0
   -2.8874   -0.0907   -0.8983 C   0  0  0  0  0  0  0  0  0  0  0  0
   -2.8376   -0.1273   -2.2712 O   0  0  0  0  0  0  0  0  0  0  0  0
   -2.5495    1.1706   -2.7923 C   0  0  0  0  0  0  0  0  0  0  0  0
   -6.0905    2.0657    0.3259 H   0  0  0  0  0  0  0  0  0  0  0  0
   -6.9974    1.4640   -1.0664 H   0  0  0  0  0  0  0  0  0  0  0  0
   -6.6699    0.3548    0.2705 H   0  0  0  0  0  0  0  0  0  0  0  0
   -4.8397    0.7255    1.7722 H   0  0  0  0  0  0  0  0  0  0  0  0
   -2.8940   -0.1328    2.9620 H   0  0  0  0  0  0  0  0  0  0  0  0
    0.3661   -1.2512    3.5524 H   0  0  0  0  0  0  0  0  0  0  0  0
    0.1922   -2.2058    0.3872 H   0  0  0  0  0  0  0  0  0  0  0  0
    3.8219    1.5225    0.9748 H   0  0  0  0  0  0  0  0  0  0  0  0
    5.4049    2.6051   -0.6018 H   0  0  0  0  0  0  0  0  0  0  0  0
    6.9485    1.2163   -1.9595 H   0  0  0  0  0  0  0  0  0  0  0  0
    6.9238   -1.2550   -1.7421 H   0  0  0  0  0  0  0  0  0  0  0  0
    5.3453   -2.3469   -0.1663 H   0  0  0  0  0  0  0  0  0  0  0  0
   -0.9336   -0.9471   -0.8014 H   0  0  0  0  0  0  0  0  0  0  0  0
   -2.4313    1.0761   -3.8761 H   0  0  0  0  0  0  0  0  0  0  0  0
   -1.6110    1.5613   -2.3830 H   0  0  0  0  0  0  0  0  0  0  0  0
   -3.3662    1.8744   -2.6039 H   0  0  0  0  0  0  0  0  0  0  0  0
  1  2  1  0
  2  3  1  0
  3  4  2  0
  4  5  1  0
  5  6  2  0
  6  7  1  0
  7  8  2  3
  7  9  1  0
  9 10  1  0
 10 11  1  0
 11 12  2  0
 11 13  1  0
 13 14  1  0
 14 15  2  0
 15 16  1  0
 16 17  2  0
 17 18  1  0
 18 19  2  0
  6 20  1  0
 20 21  2  0
 21 22  1  0
 22 23  1  0
 21  3  1  0
 19 14  1  0
  1 24  1  0
  1 25  1  0
  1 26  1  0
  4 27  1  0
  5 28  1  0
  8 29  1  0
  9 30  1  0
 15 31  1  0
 16 32  1  0
 17 33  1  0
 18 34  1  0
 19 35  1  0
 20 36  1  0
 23 37  1  0
 23 38  1  0
 23 39  1  0
M  END
$$$$
