
     RDKit          3D

 49 52  0  0  0  0  0  0  0  0999 V2000
    1.1976   -0.0679    3.4897 N   0  0  0  0  0  0  0  0  0  0  0  0
    1.0518    0.2312    2.3753 C   0  0  0  0  0  0  0  0  0  0  0  0
    0.8728    0.6363    0.9708 C   0  0  0  0  0  0  0  0  0  0  0  0
    1.4840   -0.4017    0.0411 C   0  0  0  0  0  0  0  0  0  0  0  0
    2.4651   -0.1396   -0.6557 O   0  0  0  0  0  0  0  0  0  0  0  0
    0.8726   -1.6403    0.0197 N   0  0  0  0  0  0  0  0  0  0  0  0
    1.3863   -2.7474   -0.7511 C   0  0  0  0  0  0  0  0  0  0  0  0
    2.3450   -3.5743    0.0626 C   0  0  0  0  0  0  0  0  0  0  0  0
    1.8809   -4.6115    0.8840 C   0  0  0  0  0  0  0  0  0  0  0  0
    2.7764   -5.3585    1.6526 C   0  0  0  0  0  0  0  0  0  0  0  0
    4.1405   -5.0715    1.6136 C   0  0  0  0  0  0  0  0  0  0  0  0
    4.6117   -4.0353    0.8096 C   0  0  0  0  0  0  0  0  0  0  0  0
    3.7186   -3.2880    0.0410 C   0  0  0  0  0  0  0  0  0  0  0  0
   -0.5797    0.8792    0.6229 C   0  0  0  0  0  0  0  0  0  0  0  0
   -1.4802   -0.0893    0.9783 N   0  0  0  0  0  0  0  0  0  0  0  0
   -2.7719    0.1382    0.6831 C   0  0  0  0  0  0  0  0  0  0  0  0
   -3.7366   -0.7956    1.0432 C   0  0  0  0  0  0  0  0  0  0  0  0
   -5.0859   -0.5928    0.7527 C   0  0  0  0  0  0  0  0  0  0  0  0
   -5.4771    0.5632    0.0893 C   0  0  0  0  0  0  0  0  0  0  0  0
   -4.5148    1.5058   -0.2760 C   0  0  0  0  0  0  0  0  0  0  0  0
   -3.1687    1.3140    0.0103 C   0  0  0  0  0  0  0  0  0  0  0  0
   -2.2719    2.2469   -0.3616 N   0  0  0  0  0  0  0  0  0  0  0  0
   -0.9698    2.0413   -0.0596 C   0  0  0  0  0  0  0  0  0  0  0  0
   -0.0135    2.9868   -0.4714 N   0  0  0  0  0  0  0  0  0  0  0  0
   -0.4983    4.3831   -0.4425 C   0  0  0  0  0  0  0  0  0  0  0  0
   -0.5422    4.8321   -1.8978 C   0  0  0  0  0  0  0  0  0  0  0  0
    0.6003    4.0479   -2.5130 C   0  0  0  0  0  0  0  0  0  0  0  0
    0.4525    2.6858   -1.8454 C   0  0  0  0  0  0  0  0  0  0  0  0
    1.4583    1.5544    0.8426 H   0  0  0  0  0  0  0  0  0  0  0  0
    0.0406   -1.7882    0.5812 H   0  0  0  0  0  0  0  0  0  0  0  0
    0.5314   -3.3557   -1.0643 H   0  0  0  0  0  0  0  0  0  0  0  0
    1.8731   -2.3807   -1.6621 H   0  0  0  0  0  0  0  0  0  0  0  0
    0.8186   -4.8417    0.9345 H   0  0  0  0  0  0  0  0  0  0  0  0
    2.4092   -6.1596    2.2900 H   0  0  0  0  0  0  0  0  0  0  0  0
    4.8353   -5.6486    2.2172 H   0  0  0  0  0  0  0  0  0  0  0  0
    5.6727   -3.8015    0.7883 H   0  0  0  0  0  0  0  0  0  0  0  0
    4.0956   -2.4698   -0.5706 H   0  0  0  0  0  0  0  0  0  0  0  0
   -3.4307   -1.6981    1.5679 H   0  0  0  0  0  0  0  0  0  0  0  0
   -5.8250   -1.3344    1.0469 H   0  0  0  0  0  0  0  0  0  0  0  0
   -6.5245    0.7365   -0.1419 H   0  0  0  0  0  0  0  0  0  0  0  0
   -4.8188    2.4128   -0.7941 H   0  0  0  0  0  0  0  0  0  0  0  0
    0.2469    4.9775    0.0996 H   0  0  0  0  0  0  0  0  0  0  0  0
   -1.4564    4.5371    0.0670 H   0  0  0  0  0  0  0  0  0  0  0  0
   -1.4941    4.5428   -2.3588 H   0  0  0  0  0  0  0  0  0  0  0  0
   -0.4198    5.9139   -2.0027 H   0  0  0  0  0  0  0  0  0  0  0  0
    0.5382    3.9882   -3.6027 H   0  0  0  0  0  0  0  0  0  0  0  0
    1.5627    4.5004   -2.2442 H   0  0  0  0  0  0  0  0  0  0  0  0
   -0.2678    2.0804   -2.4100 H   0  0  0  0  0  0  0  0  0  0  0  0
    1.4096    2.1564   -1.8239 H   0  0  0  0  0  0  0  0  0  0  0  0
  1  2  3  0
  2  3  1  0
  3  4  1  0
  4  5  2  0
  4  6  1  0
  6  7  1  0
  7  8  1  0
  8  9  2  0
  9 10  1  0
 10 11  2  0
 11 12  1  0
 12 13  2  0
  3 14  1  0
 14 15  2  0
 15 16  1  0
 16 17  2  0
 17 18  1  0
 18 19  2  0
 19 20  1  0
 20 21  2  0
 21 22  1  0
 22 23  2  0
 23 24  1  0
 24 25  1  0
 25 26  1  0
 26 27  1  0
 27 28  1  0
 13  8  1  0
 23 14  1  0
 28 24  1  0
 21 16  1  0
  3 29  1  0
  6 30  1  0
  7 31  1  0
  7 32  1  0
  9 33  1  0
 10 34  1  0
 11 35  1  0
 12 36  1  0
 13 37  1  0
 17 38  1  0
 18 39  1  0
 19 40  1  0
 20 41  1  0
 25 42  1  0
 25 43  1  0
 26 44  1  0
 26 45  1  0
 27 46  1  0
 27 47  1  0
 28 48  1  0
 28 49  1  0
M  END
$$$$
