
     RDKit          3D

 49 51  0  0  0  0  0  0  0  0999 V2000
   -8.0376    1.1237    2.5454 C   0  0  0  0  0  0  0  0  0  0  0  0
   -7.7623    0.6584    1.2323 O   0  0  0  0  0  0  0  0  0  0  0  0
   -6.4580    0.3653    0.9199 C   0  0  0  0  0  0  0  0  0  0  0  0
   -5.3918    0.4490    1.8209 C   0  0  0  0  0  0  0  0  0  0  0  0
   -4.0942    0.1286    1.4129 C   0  0  0  0  0  0  0  0  0  0  0  0
   -3.8463   -0.2725    0.0984 C   0  0  0  0  0  0  0  0  0  0  0  0
   -2.4945   -0.6292   -0.3455 C   0  0  0  0  0  0  0  0  0  0  0  0
   -1.4502    0.2048   -0.4413 C   0  0  0  0  0  0  0  0  0  0  0  0
   -1.3923    1.8855   -0.0856 S   0  0  0  0  0  0  0  0  0  0  0  0
    0.3046    2.0021   -0.5119 C   0  0  0  0  0  0  0  0  0  0  0  0
    0.9588    3.0202   -0.3541 O   0  0  0  0  0  0  0  0  0  0  0  0
    0.7530    0.7987   -0.9866 N   0  0  0  0  0  0  0  0  0  0  0  0
    2.1369    0.6173   -1.3978 C   0  0  0  0  0  0  0  0  0  0  0  0
    3.0302    0.2309   -0.2226 C   0  0  0  0  0  0  0  0  0  0  0  0
    4.4679    0.0431   -0.6672 C   0  0  0  0  0  0  0  0  0  0  0  0
    4.8060    0.1971   -1.8346 O   0  0  0  0  0  0  0  0  0  0  0  0
    5.2858   -0.3083    0.3942 N   0  0  0  0  0  0  0  0  0  0  0  0
    6.6730   -0.5636    0.3631 C   0  0  0  0  0  0  0  0  0  0  0  0
    7.2869   -0.9042    1.5763 C   0  0  0  0  0  0  0  0  0  0  0  0
    8.6573   -1.1727    1.6331 C   0  0  0  0  0  0  0  0  0  0  0  0
    9.4280   -1.1031    0.4764 C   0  0  0  0  0  0  0  0  0  0  0  0
    8.8274   -0.7655   -0.7338 C   0  0  0  0  0  0  0  0  0  0  0  0
    7.4556   -0.4968   -0.7907 C   0  0  0  0  0  0  0  0  0  0  0  0
   -0.1199   -0.2610   -0.9177 C   0  0  0  0  0  0  0  0  0  0  0  0
    0.1432   -1.4275   -1.1732 O   0  0  0  0  0  0  0  0  0  0  0  0
   -4.9121   -0.3689   -0.8049 C   0  0  0  0  0  0  0  0  0  0  0  0
   -6.2163   -0.0496   -0.4056 C   0  0  0  0  0  0  0  0  0  0  0  0
   -7.3160   -0.1122   -1.2262 O   0  0  0  0  0  0  0  0  0  0  0  0
   -7.1119   -0.4933   -2.5788 C   0  0  0  0  0  0  0  0  0  0  0  0
   -7.8008    0.3591    3.2925 H   0  0  0  0  0  0  0  0  0  0  0  0
   -7.5079    2.0592    2.7535 H   0  0  0  0  0  0  0  0  0  0  0  0
   -9.1106    1.3287    2.6096 H   0  0  0  0  0  0  0  0  0  0  0  0
   -5.5364    0.7578    2.8506 H   0  0  0  0  0  0  0  0  0  0  0  0
   -3.2835    0.1943    2.1350 H   0  0  0  0  0  0  0  0  0  0  0  0
   -2.3771   -1.6729   -0.6357 H   0  0  0  0  0  0  0  0  0  0  0  0
    2.1723   -0.1603   -2.1704 H   0  0  0  0  0  0  0  0  0  0  0  0
    2.4924    1.5504   -1.8514 H   0  0  0  0  0  0  0  0  0  0  0  0
    3.0001    1.0107    0.5475 H   0  0  0  0  0  0  0  0  0  0  0  0
    2.6779   -0.7040    0.2290 H   0  0  0  0  0  0  0  0  0  0  0  0
    4.8461   -0.3939    1.3019 H   0  0  0  0  0  0  0  0  0  0  0  0
    6.7104   -0.9661    2.4953 H   0  0  0  0  0  0  0  0  0  0  0  0
    9.1217   -1.4356    2.5799 H   0  0  0  0  0  0  0  0  0  0  0  0
   10.4940   -1.3110    0.5158 H   0  0  0  0  0  0  0  0  0  0  0  0
    9.4241   -0.7094   -1.6410 H   0  0  0  0  0  0  0  0  0  0  0  0
    7.0319   -0.2379   -1.7557 H   0  0  0  0  0  0  0  0  0  0  0  0
   -4.7023   -0.6923   -1.8193 H   0  0  0  0  0  0  0  0  0  0  0  0
   -8.0832   -0.4726   -3.0824 H   0  0  0  0  0  0  0  0  0  0  0  0
   -6.7248   -1.5153   -2.6466 H   0  0  0  0  0  0  0  0  0  0  0  0
   -6.4554    0.2149   -3.0948 H   0  0  0  0  0  0  0  0  0  0  0  0
  1  2  1  0
  2  3  1  0
  3  4  2  0
  4  5  1  0
  5  6  2  0
  6  7  1  0
  7  8  2  3
  8  9  1  0
  9 10  1  0
 10 11  2  0
 10 12  1  0
 12 13  1  0
 13 14  1  0
 14 15  1  0
 15 16  2  0
 15 17  1  0
 17 18  1  0
 18 19  2  0
 19 20  1  0
 20 21  2  0
 21 22  1  0
 22 23  2  0
 12 24  1  0
 24 25  2  0
  6 26  1  0
 26 27  2  0
 27 28  1  0
 28 29  1  0
 27  3  1  0
 24  8  1  0
 23 18  1  0
  1 30  1  0
  1 31  1  0
  1 32  1  0
  4 33  1  0
  5 34  1  0
  7 35  1  0
 13 36  1  0
 13 37  1  0
 14 38  1  0
 14 39  1  0
 17 40  1  0
 19 41  1  0
 20 42  1  0
 21 43  1  0
 22 44  1  0
 23 45  1  0
 26 46  1  0
 29 47  1  0
 29 48  1  0
 29 49  1  0
M  END
$$$$
