
     RDKit          3D

 43 46  0  0  0  0  0  0  0  0999 V2000
    2.6128    1.8891    2.3524 C   0  0  0  0  0  0  0  0  0  0  0  0
    3.6214    0.9826    1.9273 O   0  0  0  0  0  0  0  0  0  0  0  0
    3.2575    0.2410    0.8223 C   0  0  0  0  0  0  0  0  0  0  0  0
    2.0408    0.3834    0.3057 N   0  0  0  0  0  0  0  0  0  0  0  0
    1.7771   -0.3757   -0.7444 C   0  0  0  0  0  0  0  0  0  0  0  0
    0.5526   -0.3201   -1.3798 N   0  0  0  0  0  0  0  0  0  0  0  0
   -0.6880    0.0108   -0.6784 C   0  0  0  0  0  0  0  0  0  0  0  0
   -0.7631    1.5103   -0.3040 C   0  0  0  0  0  0  0  0  0  0  0  0
   -2.1177    1.8338    0.3526 C   0  0  0  0  0  0  0  0  0  0  0  0
   -3.2501    1.5265   -0.6389 C   0  0  0  0  0  0  0  0  0  0  0  0
   -3.2152    0.0409   -1.0276 C   0  0  0  0  0  0  0  0  0  0  0  0
   -3.3945   -0.8197    0.2326 C   0  0  0  0  0  0  0  0  0  0  0  0
   -2.2639   -0.5284    1.2317 C   0  0  0  0  0  0  0  0  0  0  0  0
   -2.2919    0.9631    1.6095 C   0  0  0  0  0  0  0  0  0  0  0  0
   -0.9096   -0.8618    0.5798 C   0  0  0  0  0  0  0  0  0  0  0  0
   -1.8551   -0.2801   -1.6674 C   0  0  0  0  0  0  0  0  0  0  0  0
    2.6391   -1.2318   -1.2727 N   0  0  0  0  0  0  0  0  0  0  0  0
    3.8264   -1.2842   -0.6731 C   0  0  0  0  0  0  0  0  0  0  0  0
    4.7932   -2.1475   -1.1458 O   0  0  0  0  0  0  0  0  0  0  0  0
    4.4086   -2.8294   -2.3315 C   0  0  0  0  0  0  0  0  0  0  0  0
    4.1953   -0.5797    0.3826 N   0  0  0  0  0  0  0  0  0  0  0  0
    2.9981    2.4346    3.2194 H   0  0  0  0  0  0  0  0  0  0  0  0
    1.7082    1.3586    2.6701 H   0  0  0  0  0  0  0  0  0  0  0  0
    2.3839    2.6246    1.5731 H   0  0  0  0  0  0  0  0  0  0  0  0
    0.5049   -1.1398   -1.9764 H   0  0  0  0  0  0  0  0  0  0  0  0
    0.0325    1.7909    0.3934 H   0  0  0  0  0  0  0  0  0  0  0  0
   -0.6214    2.1328   -1.1972 H   0  0  0  0  0  0  0  0  0  0  0  0
   -2.1485    2.8934    0.6302 H   0  0  0  0  0  0  0  0  0  0  0  0
   -4.2197    1.7744   -0.1899 H   0  0  0  0  0  0  0  0  0  0  0  0
   -3.1446    2.1514   -1.5342 H   0  0  0  0  0  0  0  0  0  0  0  0
   -4.0197   -0.1740   -1.7397 H   0  0  0  0  0  0  0  0  0  0  0  0
   -4.3668   -0.6095    0.6949 H   0  0  0  0  0  0  0  0  0  0  0  0
   -3.3929   -1.8832   -0.0359 H   0  0  0  0  0  0  0  0  0  0  0  0
   -2.3999   -1.1399    2.1308 H   0  0  0  0  0  0  0  0  0  0  0  0
   -1.4945    1.1820    2.3304 H   0  0  0  0  0  0  0  0  0  0  0  0
   -3.2417    1.2052    2.1020 H   0  0  0  0  0  0  0  0  0  0  0  0
   -0.1160   -0.7009    1.3187 H   0  0  0  0  0  0  0  0  0  0  0  0
   -0.8735   -1.9269    0.3158 H   0  0  0  0  0  0  0  0  0  0  0  0
   -1.8357   -1.3339   -1.9770 H   0  0  0  0  0  0  0  0  0  0  0  0
   -1.7290    0.3101   -2.5851 H   0  0  0  0  0  0  0  0  0  0  0  0
    5.2471   -3.4614   -2.6402 H   0  0  0  0  0  0  0  0  0  0  0  0
    4.2047   -2.1273   -3.1476 H   0  0  0  0  0  0  0  0  0  0  0  0
    3.5487   -3.4842   -2.1523 H   0  0  0  0  0  0  0  0  0  0  0  0
  1  2  1  0
  2  3  1  0
  3  4  2  0
  4  5  1  0
  5  6  1  0
  6  7  1  0
  7  8  1  0
  8  9  1  0
  9 10  1  0
 10 11  1  0
 11 12  1  0
 12 13  1  0
 13 14  1  0
 13 15  1  0
 11 16  1  0
  5 17  2  0
 17 18  1  0
 18 19  1  0
 19 20  1  0
 18 21  2  0
 21  3  1  0
 15  7  1  0
 16  7  1  0
 14  9  1  0
  1 22  1  0
  1 23  1  0
  1 24  1  0
  6 25  1  0
  8 26  1  0
  8 27  1  0
  9 28  1  0
 10 29  1  0
 10 30  1  0
 11 31  1  0
 12 32  1  0
 12 33  1  0
 13 34  1  0
 14 35  1  0
 14 36  1  0
 15 37  1  0
 15 38  1  0
 16 39  1  0
 16 40  1  0
 20 41  1  0
 20 42  1  0
 20 43  1  0
M  END
$$$$
