
     RDKit          3D

 43 45  0  0  0  0  0  0  0  0999 V2000
   -7.0955    1.1986   -0.9833 C   0  0  0  0  0  0  0  0  0  0  0  0
   -6.7259    0.7825    0.2353 C   0  0  0  0  0  0  0  0  0  0  0  0
   -6.2233   -0.6010    0.5449 C   0  0  0  0  0  0  0  0  0  0  0  0
   -4.7878   -0.5423    0.7676 N   0  0  0  0  0  0  0  0  0  0  0  0
   -4.3415   -0.2381    2.0447 C   0  0  0  0  0  0  0  0  0  0  0  0
   -5.0816   -0.0283    3.0037 O   0  0  0  0  0  0  0  0  0  0  0  0
   -2.9932   -0.1730    2.2172 N   0  0  0  0  0  0  0  0  0  0  0  0
   -2.0748   -0.3859    1.2062 C   0  0  0  0  0  0  0  0  0  0  0  0
   -0.7688   -0.2782    1.5239 N   0  0  0  0  0  0  0  0  0  0  0  0
    0.1133   -0.4957    0.5235 C   0  0  0  0  0  0  0  0  0  0  0  0
    1.4730   -0.4001    0.7772 C   0  0  0  0  0  0  0  0  0  0  0  0
    2.4247   -0.6045   -0.2268 C   0  0  0  0  0  0  0  0  0  0  0  0
    3.7874   -0.5109    0.0901 N   0  0  0  0  0  0  0  0  0  0  0  0
    4.3133    0.6671    0.0022 C   0  0  0  0  0  0  0  0  0  0  0  0
    5.6265    0.9898    0.2586 N   0  0  0  0  0  0  0  0  0  0  0  0
    6.0159    2.3799    0.4305 C   0  0  0  0  0  0  0  0  0  0  0  0
    6.4928    0.0000    0.8851 C   0  0  0  0  0  0  0  0  0  0  0  0
    2.0013   -0.9466   -1.5173 C   0  0  0  0  0  0  0  0  0  0  0  0
    2.9953   -1.2008   -2.6149 C   0  0  0  0  0  0  0  0  0  0  0  0
    0.6264   -1.0372   -1.7795 C   0  0  0  0  0  0  0  0  0  0  0  0
   -0.3204   -0.8184   -0.7885 C   0  0  0  0  0  0  0  0  0  0  0  0
   -1.6272   -0.9191   -1.0910 N   0  0  0  0  0  0  0  0  0  0  0  0
   -2.4937   -0.6974   -0.0708 C   0  0  0  0  0  0  0  0  0  0  0  0
   -3.9480   -0.7955   -0.3236 C   0  0  0  0  0  0  0  0  0  0  0  0
   -4.3582   -1.0947   -1.4433 O   0  0  0  0  0  0  0  0  0  0  0  0
   -7.0281    0.5468   -1.8506 H   0  0  0  0  0  0  0  0  0  0  0  0
   -7.4603    2.2086   -1.1417 H   0  0  0  0  0  0  0  0  0  0  0  0
   -6.8069    1.4678    1.0769 H   0  0  0  0  0  0  0  0  0  0  0  0
   -6.4546   -1.2960   -0.2702 H   0  0  0  0  0  0  0  0  0  0  0  0
   -6.7315   -0.9772    1.4401 H   0  0  0  0  0  0  0  0  0  0  0  0
   -2.6402    0.0504    3.1373 H   0  0  0  0  0  0  0  0  0  0  0  0
    1.8093   -0.1635    1.7834 H   0  0  0  0  0  0  0  0  0  0  0  0
    3.7140    1.5459   -0.3055 H   0  0  0  0  0  0  0  0  0  0  0  0
    7.0959    2.5061    0.3006 H   0  0  0  0  0  0  0  0  0  0  0  0
    5.5234    3.0191   -0.3101 H   0  0  0  0  0  0  0  0  0  0  0  0
    5.7418    2.7310    1.4306 H   0  0  0  0  0  0  0  0  0  0  0  0
    6.4032   -0.9720    0.3883 H   0  0  0  0  0  0  0  0  0  0  0  0
    7.5447    0.2978    0.8195 H   0  0  0  0  0  0  0  0  0  0  0  0
    6.2336   -0.1190    1.9422 H   0  0  0  0  0  0  0  0  0  0  0  0
    3.5157   -0.2739   -2.8759 H   0  0  0  0  0  0  0  0  0  0  0  0
    3.7266   -1.9538   -2.3036 H   0  0  0  0  0  0  0  0  0  0  0  0
    2.5052   -1.5771   -3.5190 H   0  0  0  0  0  0  0  0  0  0  0  0
    0.2781   -1.2913   -2.7791 H   0  0  0  0  0  0  0  0  0  0  0  0
  1  2  2  0
  2  3  1  0
  3  4  1  0
  4  5  1  0
  5  6  2  0
  5  7  1  0
  7  8  1  0
  8  9  2  0
  9 10  1  0
 10 11  2  0
 11 12  1  0
 12 13  1  0
 13 14  2  3
 14 15  1  0
 15 16  1  0
 15 17  1  0
 12 18  2  0
 18 19  1  0
 18 20  1  0
 20 21  2  0
 21 22  1  0
 22 23  2  0
 23 24  1  0
 24 25  2  0
 24  4  1  0
 23  8  1  0
 21 10  1  0
  1 26  1  0
  1 27  1  0
  2 28  1  0
  3 29  1  0
  3 30  1  0
  7 31  1  0
 11 32  1  0
 14 33  1  0
 16 34  1  0
 16 35  1  0
 16 36  1  0
 17 37  1  0
 17 38  1  0
 17 39  1  0
 19 40  1  0
 19 41  1  0
 19 42  1  0
 20 43  1  0
M  END
$$$$
