
     RDKit          3D

 39 40  0  0  0  0  0  0  0  0999 V2000
   -5.6922    2.5989    0.2022 C   0  0  0  0  0  0  0  0  0  0  0  0
   -5.2750    1.5064   -0.6031 O   0  0  0  0  0  0  0  0  0  0  0  0
   -4.1553    0.8147   -0.2128 C   0  0  0  0  0  0  0  0  0  0  0  0
   -3.4007    1.1117    0.9274 C   0  0  0  0  0  0  0  0  0  0  0  0
   -2.2703    0.3530    1.2472 C   0  0  0  0  0  0  0  0  0  0  0  0
   -1.8815   -0.7071    0.4237 C   0  0  0  0  0  0  0  0  0  0  0  0
   -0.6669   -1.5252    0.7380 C   0  0  0  0  0  0  0  0  0  0  0  0
   -0.5583   -2.7055    0.2066 N   0  0  0  0  0  0  0  0  0  0  0  0
    0.3038   -1.0155    1.5757 N   0  0  0  0  0  0  0  0  0  0  0  0
    1.5704   -1.6078    1.3544 O   0  0  0  0  0  0  0  0  0  0  0  0
    2.5310   -0.6694    1.0610 C   0  0  0  0  0  0  0  0  0  0  0  0
    2.3100    0.5369    1.0424 O   0  0  0  0  0  0  0  0  0  0  0  0
    3.7226   -1.3230    0.8149 O   0  0  0  0  0  0  0  0  0  0  0  0
    4.7570   -0.4456    0.4933 C   0  0  0  0  0  0  0  0  0  0  0  0
    5.6399   -0.0467    1.4953 C   0  0  0  0  0  0  0  0  0  0  0  0
    6.7016    0.7957    1.1687 C   0  0  0  0  0  0  0  0  0  0  0  0
    6.8786    1.2178   -0.1511 C   0  0  0  0  0  0  0  0  0  0  0  0
    5.9986    0.7944   -1.1500 C   0  0  0  0  0  0  0  0  0  0  0  0
    4.9348   -0.0483   -0.8311 C   0  0  0  0  0  0  0  0  0  0  0  0
   -2.6411   -1.0173   -0.7120 C   0  0  0  0  0  0  0  0  0  0  0  0
   -3.7753   -0.2646   -1.0367 C   0  0  0  0  0  0  0  0  0  0  0  0
   -4.5697   -0.4952   -2.1334 O   0  0  0  0  0  0  0  0  0  0  0  0
   -4.2798   -1.6397   -2.9243 C   0  0  0  0  0  0  0  0  0  0  0  0
   -6.5870    3.0304   -0.2568 H   0  0  0  0  0  0  0  0  0  0  0  0
   -4.9264    3.3807    0.2355 H   0  0  0  0  0  0  0  0  0  0  0  0
   -5.9633    2.2661    1.2095 H   0  0  0  0  0  0  0  0  0  0  0  0
   -3.6705    1.9247    1.5933 H   0  0  0  0  0  0  0  0  0  0  0  0
   -1.7250    0.5935    2.1551 H   0  0  0  0  0  0  0  0  0  0  0  0
    0.3160   -3.1135    0.5574 H   0  0  0  0  0  0  0  0  0  0  0  0
    0.3671    0.0073    1.5934 H   0  0  0  0  0  0  0  0  0  0  0  0
    5.5066   -0.3841    2.5184 H   0  0  0  0  0  0  0  0  0  0  0  0
    7.3944    1.1223    1.9401 H   0  0  0  0  0  0  0  0  0  0  0  0
    7.7076    1.8750   -0.4030 H   0  0  0  0  0  0  0  0  0  0  0  0
    6.1454    1.1203   -2.1766 H   0  0  0  0  0  0  0  0  0  0  0  0
    4.2558   -0.3859   -1.6082 H   0  0  0  0  0  0  0  0  0  0  0  0
   -2.3214   -1.8504   -1.3302 H   0  0  0  0  0  0  0  0  0  0  0  0
   -3.3017   -1.5466   -3.4074 H   0  0  0  0  0  0  0  0  0  0  0  0
   -4.3453   -2.5587   -2.3324 H   0  0  0  0  0  0  0  0  0  0  0  0
   -5.0348   -1.6995   -3.7141 H   0  0  0  0  0  0  0  0  0  0  0  0
  1  2  1  0
  2  3  1  0
  3  4  2  0
  4  5  1  0
  5  6  2  0
  6  7  1  0
  7  8  2  3
  7  9  1  0
  9 10  1  0
 10 11  1  0
 11 12  2  0
 11 13  1  0
 13 14  1  0
 14 15  2  0
 15 16  1  0
 16 17  2  0
 17 18  1  0
 18 19  2  0
  6 20  1  0
 20 21  2  0
 21 22  1  0
 22 23  1  0
 21  3  1  0
 19 14  1  0
  1 24  1  0
  1 25  1  0
  1 26  1  0
  4 27  1  0
  5 28  1  0
  8 29  1  0
  9 30  1  0
 15 31  1  0
 16 32  1  0
 17 33  1  0
 18 34  1  0
 19 35  1  0
 20 36  1  0
 23 37  1  0
 23 38  1  0
 23 39  1  0
M  END
$$$$
