
     RDKit          3D

 38 39  0  0  0  0  0  0  0  0999 V2000
   -2.4776   -0.0464   -2.0545 C   0  0  0  0  0  0  0  0  0  0  0  0
   -3.6635    0.0529   -1.2133 N   0  0  0  0  0  0  0  0  0  0  0  0
   -3.4263   -0.4871    0.1324 C   0  0  0  0  0  0  0  0  0  0  0  0
   -2.5251    0.3824    0.9844 C   0  0  0  0  0  0  0  0  0  0  0  0
   -2.9435    1.6907    1.2908 C   0  0  0  0  0  0  0  0  0  0  0  0
   -2.1585    2.5260    2.0817 C   0  0  0  0  0  0  0  0  0  0  0  0
   -0.9441    2.0645    2.5761 C   0  0  0  0  0  0  0  0  0  0  0  0
   -0.5117    0.7689    2.2813 C   0  0  0  0  0  0  0  0  0  0  0  0
   -1.2958   -0.0805    1.4913 C   0  0  0  0  0  0  0  0  0  0  0  0
   -0.9366   -1.3517    1.1247 O   0  0  0  0  0  0  0  0  0  0  0  0
    0.2043   -1.9436    1.7343 C   0  0  0  0  0  0  0  0  0  0  0  0
    1.5537   -1.5783    1.0994 C   0  0  0  0  0  0  0  0  0  0  0  0
    2.6045   -1.8457    1.6754 O   0  0  0  0  0  0  0  0  0  0  0  0
    1.4174   -0.9732   -0.1368 N   0  0  0  0  0  0  0  0  0  0  0  0
    2.4317   -0.5240   -1.0017 C   0  0  0  0  0  0  0  0  0  0  0  0
    2.0285    0.1320   -2.1722 C   0  0  0  0  0  0  0  0  0  0  0  0
    2.9734    0.6075   -3.0851 C   0  0  0  0  0  0  0  0  0  0  0  0
    4.3314    0.4297   -2.8362 C   0  0  0  0  0  0  0  0  0  0  0  0
    4.7414   -0.2225   -1.6758 C   0  0  0  0  0  0  0  0  0  0  0  0
    3.7954   -0.6979   -0.7616 C   0  0  0  0  0  0  0  0  0  0  0  0
   -2.7176    0.3132   -3.0602 H   0  0  0  0  0  0  0  0  0  0  0  0
   -2.1315   -1.0813   -2.1439 H   0  0  0  0  0  0  0  0  0  0  0  0
   -1.6589    0.5744   -1.6779 H   0  0  0  0  0  0  0  0  0  0  0  0
   -4.4127   -0.4879   -1.6433 H   0  0  0  0  0  0  0  0  0  0  0  0
   -4.3932   -0.5508    0.6483 H   0  0  0  0  0  0  0  0  0  0  0  0
   -3.0689   -1.5208    0.0647 H   0  0  0  0  0  0  0  0  0  0  0  0
   -3.8889    2.0606    0.8974 H   0  0  0  0  0  0  0  0  0  0  0  0
   -2.4929    3.5355    2.3055 H   0  0  0  0  0  0  0  0  0  0  0  0
   -0.3250    2.7162    3.1881 H   0  0  0  0  0  0  0  0  0  0  0  0
    0.4520    0.4670    2.6793 H   0  0  0  0  0  0  0  0  0  0  0  0
    0.2309   -1.7534    2.8134 H   0  0  0  0  0  0  0  0  0  0  0  0
    0.0948   -3.0274    1.6106 H   0  0  0  0  0  0  0  0  0  0  0  0
    0.4605   -0.7853   -0.4206 H   0  0  0  0  0  0  0  0  0  0  0  0
    0.9749    0.2875   -2.3877 H   0  0  0  0  0  0  0  0  0  0  0  0
    2.6486    1.1176   -3.9881 H   0  0  0  0  0  0  0  0  0  0  0  0
    5.0697    0.7985   -3.5433 H   0  0  0  0  0  0  0  0  0  0  0  0
    5.8006   -0.3645   -1.4762 H   0  0  0  0  0  0  0  0  0  0  0  0
    4.1586   -1.2029    0.1278 H   0  0  0  0  0  0  0  0  0  0  0  0
  1  2  1  0
  2  3  1  0
  3  4  1  0
  4  5  2  0
  5  6  1  0
  6  7  2  0
  7  8  1  0
  8  9  2  0
  9 10  1  0
 10 11  1  0
 11 12  1  0
 12 13  2  0
 12 14  1  0
 14 15  1  0
 15 16  2  0
 16 17  1  0
 17 18  2  0
 18 19  1  0
 19 20  2  0
  9  4  1  0
 20 15  1  0
  1 21  1  0
  1 22  1  0
  1 23  1  0
  2 24  1  0
  3 25  1  0
  3 26  1  0
  5 27  1  0
  6 28  1  0
  7 29  1  0
  8 30  1  0
 11 31  1  0
 11 32  1  0
 14 33  1  0
 16 34  1  0
 17 35  1  0
 18 36  1  0
 19 37  1  0
 20 38  1  0
M  END
$$$$
