
     RDKit          3D

 42 43  0  0  0  0  0  0  0  0999 V2000
    3.7828   -0.2537   -0.6472 C   0  0  0  0  0  0  0  0  0  0  0  0
    3.7215   -0.1805    0.8675 C   0  0  0  0  0  0  0  0  0  0  0  0
    2.8285   -0.7846    1.6027 N   0  0  0  0  0  0  0  0  0  0  0  0
    1.7795   -1.4151    0.9872 N   0  0  0  0  0  0  0  0  0  0  0  0
    0.8124   -0.6722    0.3026 C   0  0  0  0  0  0  0  0  0  0  0  0
    0.9213    0.5034   -0.0309 O   0  0  0  0  0  0  0  0  0  0  0  0
   -0.4136   -1.5115   -0.0132 C   0  0  0  0  0  0  0  0  0  0  0  0
   -1.5102   -0.7362   -0.7414 C   0  0  0  0  0  0  0  0  0  0  0  0
   -2.2308    0.2584    0.1740 C   0  0  0  0  0  0  0  0  0  0  0  0
   -3.2942    0.9551   -0.5420 N   0  0  0  0  0  0  0  0  0  0  0  0
   -4.4898    0.3332   -0.8970 C   0  0  0  0  0  0  0  0  0  0  0  0
   -5.3005    0.9458   -1.8646 C   0  0  0  0  0  0  0  0  0  0  0  0
   -6.5398    0.4093   -2.2277 C   0  0  0  0  0  0  0  0  0  0  0  0
   -7.0060   -0.7434   -1.6056 C   0  0  0  0  0  0  0  0  0  0  0  0
   -6.2377   -1.3457   -0.6145 C   0  0  0  0  0  0  0  0  0  0  0  0
   -4.9982   -0.8021   -0.2563 C   0  0  0  0  0  0  0  0  0  0  0  0
    4.7857    0.6116    1.5613 C   0  0  0  0  0  0  0  0  0  0  0  0
    5.4735    1.6341    0.9084 C   0  0  0  0  0  0  0  0  0  0  0  0
    6.4417    2.3236    1.6183 C   0  0  0  0  0  0  0  0  0  0  0  0
    6.7579    2.0649    2.9046 N   0  0  0  0  0  0  0  0  0  0  0  0
    6.0659    1.0815    3.5175 C   0  0  0  0  0  0  0  0  0  0  0  0
    5.0801    0.3355    2.8976 C   0  0  0  0  0  0  0  0  0  0  0  0
    4.8226   -0.2738   -0.9875 H   0  0  0  0  0  0  0  0  0  0  0  0
    3.2835    0.6156   -1.0825 H   0  0  0  0  0  0  0  0  0  0  0  0
    3.3143   -1.1682   -1.0199 H   0  0  0  0  0  0  0  0  0  0  0  0
    1.4107   -2.1799    1.5459 H   0  0  0  0  0  0  0  0  0  0  0  0
   -0.8065   -1.9376    0.9171 H   0  0  0  0  0  0  0  0  0  0  0  0
   -0.0850   -2.3402   -0.6521 H   0  0  0  0  0  0  0  0  0  0  0  0
   -1.0936   -0.2080   -1.6082 H   0  0  0  0  0  0  0  0  0  0  0  0
   -2.2309   -1.4607   -1.1388 H   0  0  0  0  0  0  0  0  0  0  0  0
   -1.5262    1.0191    0.5264 H   0  0  0  0  0  0  0  0  0  0  0  0
   -2.6126   -0.2326    1.0757 H   0  0  0  0  0  0  0  0  0  0  0  0
   -2.9368    1.5688   -1.2703 H   0  0  0  0  0  0  0  0  0  0  0  0
   -4.9684    1.8602   -2.3502 H   0  0  0  0  0  0  0  0  0  0  0  0
   -7.1404    0.9004   -2.9883 H   0  0  0  0  0  0  0  0  0  0  0  0
   -7.9703   -1.1614   -1.8804 H   0  0  0  0  0  0  0  0  0  0  0  0
   -6.6048   -2.2339   -0.1073 H   0  0  0  0  0  0  0  0  0  0  0  0
   -4.4452   -1.2881    0.5402 H   0  0  0  0  0  0  0  0  0  0  0  0
    5.2631    1.9149   -0.1164 H   0  0  0  0  0  0  0  0  0  0  0  0
    7.0041    3.1316    1.1583 H   0  0  0  0  0  0  0  0  0  0  0  0
    6.3333    0.9036    4.5553 H   0  0  0  0  0  0  0  0  0  0  0  0
    4.5591   -0.4412    3.4464 H   0  0  0  0  0  0  0  0  0  0  0  0
  1  2  1  0
  2  3  2  3
  3  4  1  0
  4  5  1  0
  5  6  2  0
  5  7  1  0
  7  8  1  0
  8  9  1  0
  9 10  1  0
 10 11  1  0
 11 12  2  0
 12 13  1  0
 13 14  2  0
 14 15  1  0
 15 16  2  0
  2 17  1  0
 17 18  2  0
 18 19  1  0
 19 20  2  0
 20 21  1  0
 21 22  2  0
 16 11  1  0
 22 17  1  0
  1 23  1  0
  1 24  1  0
  1 25  1  0
  4 26  1  0
  7 27  1  0
  7 28  1  0
  8 29  1  0
  8 30  1  0
  9 31  1  0
  9 32  1  0
 10 33  1  0
 12 34  1  0
 13 35  1  0
 14 36  1  0
 15 37  1  0
 16 38  1  0
 18 39  1  0
 19 40  1  0
 21 41  1  0
 22 42  1  0
M  END
$$$$
