
     RDKit          3D

 55 58  0  0  0  0  0  0  0  0999 V2000
   -3.9600    0.2416   -3.2564 C   0  0  0  0  0  0  0  0  0  0  0  0
   -4.6437    1.0665   -2.1750 C   0  0  0  0  0  0  0  0  0  0  0  0
   -5.0015    0.2329   -1.0214 N   0  0  0  0  0  0  0  0  0  0  0  0
   -6.2161   -0.4219   -0.9022 C   0  0  0  0  0  0  0  0  0  0  0  0
   -6.5785   -1.2298    0.1078 C   0  0  0  0  0  0  0  0  0  0  0  0
   -7.9065   -1.8533    0.0425 C   0  0  0  0  0  0  0  0  0  0  0  0
   -8.8454   -1.4546   -0.6277 O   0  0  0  0  0  0  0  0  0  0  0  0
   -8.0062   -2.9808    0.7596 O   0  0  0  0  0  0  0  0  0  0  0  0
   -5.5923   -1.4153    1.2010 C   0  0  0  0  0  0  0  0  0  0  0  0
   -5.8302   -2.0386    2.2289 O   0  0  0  0  0  0  0  0  0  0  0  0
   -4.2740   -0.7838    1.0344 C   0  0  0  0  0  0  0  0  0  0  0  0
   -3.2686   -0.9559    1.9500 C   0  0  0  0  0  0  0  0  0  0  0  0
   -2.0523   -0.3897    1.8200 N   0  0  0  0  0  0  0  0  0  0  0  0
   -1.8309    0.3763    0.7391 C   0  0  0  0  0  0  0  0  0  0  0  0
   -0.5861    0.9947    0.5948 N   0  0  0  0  0  0  0  0  0  0  0  0
   -0.2709    1.3758   -0.7969 C   0  0  0  0  0  0  0  0  0  0  0  0
    1.0620    2.1489   -0.8509 C   0  0  0  0  0  0  0  0  0  0  0  0
    2.1535    1.4036   -0.1897 N   0  0  0  0  0  0  0  0  0  0  0  0
    3.0492    0.5797   -0.9099 C   0  0  0  0  0  0  0  0  0  0  0  0
    2.8762    0.1903   -2.5315 S   0  0  0  0  0  0  0  0  0  0  0  0
    4.1221    0.1713   -0.1091 N   0  0  0  0  0  0  0  0  0  0  0  0
    5.1567   -0.7184   -0.3959 C   0  0  0  0  0  0  0  0  0  0  0  0
    5.1156   -1.6402   -1.2005 O   0  0  0  0  0  0  0  0  0  0  0  0
    6.3833   -0.5526    0.4305 C   0  0  0  0  0  0  0  0  0  0  0  0
    6.3258   -0.2047    1.7868 C   0  0  0  0  0  0  0  0  0  0  0  0
    7.5075   -0.0581    2.5172 C   0  0  0  0  0  0  0  0  0  0  0  0
    8.7419   -0.2658    1.9008 C   0  0  0  0  0  0  0  0  0  0  0  0
    8.8008   -0.6308    0.5561 C   0  0  0  0  0  0  0  0  0  0  0  0
    7.6236   -0.7797   -0.1780 C   0  0  0  0  0  0  0  0  0  0  0  0
    1.8161    1.1102    1.2184 C   0  0  0  0  0  0  0  0  0  0  0  0
    0.4999    0.3080    1.3189 C   0  0  0  0  0  0  0  0  0  0  0  0
   -2.7778    0.5974   -0.1906 N   0  0  0  0  0  0  0  0  0  0  0  0
   -3.9913    0.0213   -0.0521 C   0  0  0  0  0  0  0  0  0  0  0  0
   -3.0229   -0.1954   -2.8972 H   0  0  0  0  0  0  0  0  0  0  0  0
   -3.7302    0.8701   -4.1224 H   0  0  0  0  0  0  0  0  0  0  0  0
   -4.6039   -0.5780   -3.5922 H   0  0  0  0  0  0  0  0  0  0  0  0
   -4.0121    1.9149   -1.8842 H   0  0  0  0  0  0  0  0  0  0  0  0
   -5.5526    1.5144   -2.5972 H   0  0  0  0  0  0  0  0  0  0  0  0
   -6.8915   -0.2328   -1.7356 H   0  0  0  0  0  0  0  0  0  0  0  0
   -8.9292   -3.2822    0.6370 H   0  0  0  0  0  0  0  0  0  0  0  0
   -3.4042   -1.5668    2.8382 H   0  0  0  0  0  0  0  0  0  0  0  0
   -1.0462    2.0318   -1.2115 H   0  0  0  0  0  0  0  0  0  0  0  0
   -0.2078    0.4771   -1.4231 H   0  0  0  0  0  0  0  0  0  0  0  0
    1.3203    2.4052   -1.8820 H   0  0  0  0  0  0  0  0  0  0  0  0
    0.9574    3.0974   -0.3088 H   0  0  0  0  0  0  0  0  0  0  0  0
    4.3430    0.8757    0.5777 H   0  0  0  0  0  0  0  0  0  0  0  0
    5.3767   -0.0785    2.2990 H   0  0  0  0  0  0  0  0  0  0  0  0
    7.4685    0.2051    3.5718 H   0  0  0  0  0  0  0  0  0  0  0  0
    9.6606   -0.1561    2.4726 H   0  0  0  0  0  0  0  0  0  0  0  0
    9.7627   -0.8058    0.0798 H   0  0  0  0  0  0  0  0  0  0  0  0
    7.6729   -1.0734   -1.2253 H   0  0  0  0  0  0  0  0  0  0  0  0
    1.7115    2.0729    1.7331 H   0  0  0  0  0  0  0  0  0  0  0  0
    2.6079    0.5496    1.7214 H   0  0  0  0  0  0  0  0  0  0  0  0
    0.6536   -0.6942    0.8974 H   0  0  0  0  0  0  0  0  0  0  0  0
    0.2637    0.2042    2.3849 H   0  0  0  0  0  0  0  0  0  0  0  0
  1  2  1  0
  2  3  1  0
  3  4  1  0
  4  5  2  0
  5  6  1  0
  6  7  2  0
  6  8  1  0
  5  9  1  0
  9 10  2  0
  9 11  1  0
 11 12  2  0
 12 13  1  0
 13 14  2  0
 14 15  1  0
 15 16  1  0
 16 17  1  0
 17 18  1  0
 18 19  1  0
 19 20  2  0
 19 21  1  0
 21 22  1  0
 22 23  2  0
 22 24  1  0
 24 25  2  0
 25 26  1  0
 26 27  2  0
 27 28  1  0
 28 29  2  0
 18 30  1  0
 30 31  1  0
 14 32  1  0
 32 33  2  0
 33  3  1  0
 33 11  1  0
 31 15  1  0
 29 24  1  0
  1 34  1  0
  1 35  1  0
  1 36  1  0
  2 37  1  0
  2 38  1  0
  4 39  1  0
  8 40  1  0
 12 41  1  0
 16 42  1  0
 16 43  1  0
 17 44  1  0
 17 45  1  0
 21 46  1  0
 25 47  1  0
 26 48  1  0
 27 49  1  0
 28 50  1  0
 29 51  1  0
 30 52  1  0
 30 53  1  0
 31 54  1  0
 31 55  1  0
M  END
$$$$
