
     RDKit          3D

 49 52  0  0  0  0  0  0  0  0999 V2000
    4.4225    2.1050   -2.4015 O   0  0  0  0  0  0  0  0  0  0  0  0
    3.4456    1.4376   -2.0589 C   0  0  0  0  0  0  0  0  0  0  0  0
    2.1803    1.4829   -2.9155 C   0  0  0  0  0  0  0  0  0  0  0  0
    0.9497    0.1866   -2.5714 S   0  0  0  0  0  0  0  0  0  0  0  0
    0.1187    0.8536   -1.2109 C   0  0  0  0  0  0  0  0  0  0  0  0
    0.3296    2.0378   -0.6944 N   0  0  0  0  0  0  0  0  0  0  0  0
   -0.4548    2.1469    0.4242 N   0  0  0  0  0  0  0  0  0  0  0  0
   -1.1026    1.0110    0.5962 C   0  0  0  0  0  0  0  0  0  0  0  0
   -1.9988    0.7196    1.7110 C   0  0  0  0  0  0  0  0  0  0  0  0
   -3.1165    1.5275    1.9284 C   0  0  0  0  0  0  0  0  0  0  0  0
   -3.9513    1.2250    2.9894 C   0  0  0  0  0  0  0  0  0  0  0  0
   -3.7419    0.1939    3.8344 N   0  0  0  0  0  0  0  0  0  0  0  0
   -2.6328   -0.5488    3.6303 C   0  0  0  0  0  0  0  0  0  0  0  0
   -1.7387   -0.3272    2.5962 C   0  0  0  0  0  0  0  0  0  0  0  0
   -0.8129    0.1785   -0.4679 N   0  0  0  0  0  0  0  0  0  0  0  0
   -1.3728   -1.1266   -0.7356 C   0  0  0  0  0  0  0  0  0  0  0  0
   -2.4085   -1.1567   -1.8686 C   0  0  0  0  0  0  0  0  0  0  0  0
   -3.6728   -0.3488   -1.6101 C   0  0  0  0  0  0  0  0  0  0  0  0
   -4.5602   -1.3364   -0.8961 C   0  0  0  0  0  0  0  0  0  0  0  0
   -4.2183   -2.6280   -1.6032 C   0  0  0  0  0  0  0  0  0  0  0  0
   -2.8460   -2.5251   -2.0156 O   0  0  0  0  0  0  0  0  0  0  0  0
    3.3891    0.6432   -0.9365 N   0  0  0  0  0  0  0  0  0  0  0  0
    4.3731    0.4165    0.0522 C   0  0  0  0  0  0  0  0  0  0  0  0
    5.6409    1.0007    0.0219 C   0  0  0  0  0  0  0  0  0  0  0  0
    6.5713    0.7302    1.0325 C   0  0  0  0  0  0  0  0  0  0  0  0
    6.2464   -0.1270    2.0826 C   0  0  0  0  0  0  0  0  0  0  0  0
    4.9853   -0.7163    2.1299 C   0  0  0  0  0  0  0  0  0  0  0  0
    4.0555   -0.4447    1.1226 C   0  0  0  0  0  0  0  0  0  0  0  0
    2.4986   -1.2020    1.2294 Cl  0  0  0  0  0  0  0  0  0  0  0  0
    1.7338    2.4791   -2.8395 H   0  0  0  0  0  0  0  0  0  0  0  0
    2.4981    1.3368   -3.9525 H   0  0  0  0  0  0  0  0  0  0  0  0
   -3.3300    2.3781    1.2884 H   0  0  0  0  0  0  0  0  0  0  0  0
   -4.8358    1.8229    3.1961 H   0  0  0  0  0  0  0  0  0  0  0  0
   -2.4754   -1.3507    4.3451 H   0  0  0  0  0  0  0  0  0  0  0  0
   -0.8563   -0.9514    2.4992 H   0  0  0  0  0  0  0  0  0  0  0  0
   -1.8086   -1.5328    0.1820 H   0  0  0  0  0  0  0  0  0  0  0  0
   -0.5415   -1.8052   -0.9669 H   0  0  0  0  0  0  0  0  0  0  0  0
   -1.9477   -0.8455   -2.8134 H   0  0  0  0  0  0  0  0  0  0  0  0
   -3.5185    0.5795   -1.0597 H   0  0  0  0  0  0  0  0  0  0  0  0
   -4.1357   -0.0869   -2.5712 H   0  0  0  0  0  0  0  0  0  0  0  0
   -4.2798   -1.3975    0.1616 H   0  0  0  0  0  0  0  0  0  0  0  0
   -5.6236   -1.0902   -0.9529 H   0  0  0  0  0  0  0  0  0  0  0  0
   -4.8286   -2.7632   -2.5033 H   0  0  0  0  0  0  0  0  0  0  0  0
   -4.3438   -3.5040   -0.9604 H   0  0  0  0  0  0  0  0  0  0  0  0
    2.5134    0.1608   -0.7707 H   0  0  0  0  0  0  0  0  0  0  0  0
    5.9395    1.6787   -0.7706 H   0  0  0  0  0  0  0  0  0  0  0  0
    7.5530    1.1976    0.9934 H   0  0  0  0  0  0  0  0  0  0  0  0
    6.9753   -0.3318    2.8642 H   0  0  0  0  0  0  0  0  0  0  0  0
    4.7340   -1.3830    2.9511 H   0  0  0  0  0  0  0  0  0  0  0  0
  1  2  2  0
  2  3  1  0
  3  4  1  0
  4  5  1  0
  5  6  2  0
  6  7  1  0
  7  8  2  0
  8  9  1  0
  9 10  2  0
 10 11  1  0
 11 12  2  0
 12 13  1  0
 13 14  2  0
  8 15  1  0
 15 16  1  0
 16 17  1  0
 17 18  1  0
 18 19  1  0
 19 20  1  0
 20 21  1  0
  2 22  1  0
 22 23  1  0
 23 24  2  0
 24 25  1  0
 25 26  2  0
 26 27  1  0
 27 28  2  0
 28 29  1  0
 15  5  1  0
 21 17  1  0
 28 23  1  0
 14  9  1  0
  3 30  1  0
  3 31  1  0
 10 32  1  0
 11 33  1  0
 13 34  1  0
 14 35  1  0
 16 36  1  0
 16 37  1  0
 17 38  1  0
 18 39  1  0
 18 40  1  0
 19 41  1  0
 19 42  1  0
 20 43  1  0
 20 44  1  0
 22 45  1  0
 24 46  1  0
 25 47  1  0
 26 48  1  0
 27 49  1  0
M  END
$$$$
