
     RDKit          3D

 35 37  0  0  0  0  0  0  0  0999 V2000
   -0.7622    2.9167   -0.2692 C   0  0  0  0  0  0  0  0  0  0  0  0
   -1.0146    1.4736    0.0208 C   0  0  0  0  0  0  0  0  0  0  0  0
   -1.8954    0.9514    1.0284 C   0  0  0  0  0  0  0  0  0  0  0  0
   -2.7255    1.6648    1.9835 C   0  0  0  0  0  0  0  0  0  0  0  0
   -2.6950    2.9574    2.0371 N   0  0  0  0  0  0  0  0  0  0  0  0
   -3.5759    3.3966    3.0344 O   0  0  0  0  0  0  0  0  0  0  0  0
   -1.8300   -0.4302    0.9355 C   0  0  0  0  0  0  0  0  0  0  0  0
   -2.4585   -1.5045    1.6408 C   0  0  0  0  0  0  0  0  0  0  0  0
   -2.2249   -2.7779    1.2732 C   0  0  0  0  0  0  0  0  0  0  0  0
   -1.3466   -3.0982    0.1655 C   0  0  0  0  0  0  0  0  0  0  0  0
   -0.7402   -2.0964   -0.4906 C   0  0  0  0  0  0  0  0  0  0  0  0
   -0.9643   -0.7695   -0.1015 N   0  0  0  0  0  0  0  0  0  0  0  0
   -0.4219    0.3904   -0.6238 C   0  0  0  0  0  0  0  0  0  0  0  0
    0.5582    0.4308   -1.6913 C   0  0  0  0  0  0  0  0  0  0  0  0
    0.3202    0.9317   -2.7869 O   0  0  0  0  0  0  0  0  0  0  0  0
    1.9203   -0.1422   -1.4502 C   0  0  0  0  0  0  0  0  0  0  0  0
    2.7248   -0.4483   -2.5599 C   0  0  0  0  0  0  0  0  0  0  0  0
    4.0009   -0.9854   -2.3780 C   0  0  0  0  0  0  0  0  0  0  0  0
    4.4727   -1.2089   -1.0900 C   0  0  0  0  0  0  0  0  0  0  0  0
    5.6961   -1.7243   -0.9155 F   0  0  0  0  0  0  0  0  0  0  0  0
    3.6949   -0.9012    0.0209 C   0  0  0  0  0  0  0  0  0  0  0  0
    2.4173   -0.3632   -0.1556 C   0  0  0  0  0  0  0  0  0  0  0  0
   -1.6913    3.4147   -0.5640 H   0  0  0  0  0  0  0  0  0  0  0  0
   -0.3560    3.4183    0.6150 H   0  0  0  0  0  0  0  0  0  0  0  0
   -0.0422    3.0531   -1.0814 H   0  0  0  0  0  0  0  0  0  0  0  0
   -3.3722    1.0773    2.6575 H   0  0  0  0  0  0  0  0  0  0  0  0
   -3.4887    4.3669    2.9762 H   0  0  0  0  0  0  0  0  0  0  0  0
   -3.1265   -1.2937    2.4699 H   0  0  0  0  0  0  0  0  0  0  0  0
   -2.6987   -3.6022    1.7981 H   0  0  0  0  0  0  0  0  0  0  0  0
   -1.2026   -4.1368   -0.1114 H   0  0  0  0  0  0  0  0  0  0  0  0
   -0.0817   -2.2784   -1.3300 H   0  0  0  0  0  0  0  0  0  0  0  0
    2.3592   -0.2683   -3.5697 H   0  0  0  0  0  0  0  0  0  0  0  0
    4.6281   -1.2259   -3.2309 H   0  0  0  0  0  0  0  0  0  0  0  0
    4.0902   -1.0763    1.0171 H   0  0  0  0  0  0  0  0  0  0  0  0
    1.8321   -0.1119    0.7258 H   0  0  0  0  0  0  0  0  0  0  0  0
  1  2  1  0
  2  3  1  0
  3  4  1  0
  4  5  2  3
  5  6  1  0
  3  7  2  0
  7  8  1  0
  8  9  2  0
  9 10  1  0
 10 11  2  0
 11 12  1  0
 12 13  1  0
 13 14  1  0
 14 15  2  0
 14 16  1  0
 16 17  2  0
 17 18  1  0
 18 19  2  0
 19 20  1  0
 19 21  1  0
 21 22  2  0
 13  2  2  0
 22 16  1  0
 12  7  1  0
  1 23  1  0
  1 24  1  0
  1 25  1  0
  4 26  1  0
  6 27  1  0
  8 28  1  0
  9 29  1  0
 10 30  1  0
 11 31  1  0
 17 32  1  0
 18 33  1  0
 21 34  1  0
 22 35  1  0
M  END
$$$$
