
     RDKit          3D

 41 44  0  0  0  0  0  0  0  0999 V2000
    1.7034   -1.1135    2.8113 O   0  0  0  0  0  0  0  0  0  0  0  0
    1.5655   -0.7355    1.6482 C   0  0  0  0  0  0  0  0  0  0  0  0
    2.6955   -0.6017    0.7553 C   0  0  0  0  0  0  0  0  0  0  0  0
    3.5073   -2.0099    0.2461 S   0  0  0  0  0  0  0  0  0  0  0  0
    4.6269   -1.1139   -0.7058 C   0  0  0  0  0  0  0  0  0  0  0  0
    5.6687   -1.6387   -1.4963 C   0  0  0  0  0  0  0  0  0  0  0  0
    6.4933   -0.7606   -2.2017 C   0  0  0  0  0  0  0  0  0  0  0  0
    6.2923    0.6092   -2.1242 C   0  0  0  0  0  0  0  0  0  0  0  0
    5.2583    1.1260   -1.3377 C   0  0  0  0  0  0  0  0  0  0  0  0
    4.3973    0.2625   -0.6103 C   0  0  0  0  0  0  0  0  0  0  0  0
    3.2808    0.5399    0.2563 C   0  0  0  0  0  0  0  0  0  0  0  0
    2.7692    2.1419    0.6132 Cl  0  0  0  0  0  0  0  0  0  0  0  0
    0.3054   -0.4190    1.1402 N   0  0  0  0  0  0  0  0  0  0  0  0
   -0.8472   -0.4722    2.0398 C   0  0  0  0  0  0  0  0  0  0  0  0
   -2.0041    0.4410    1.5959 C   0  0  0  0  0  0  0  0  0  0  0  0
   -2.4045    0.1927    0.1979 N   0  0  0  0  0  0  0  0  0  0  0  0
   -3.7329    0.3497   -0.1913 C   0  0  0  0  0  0  0  0  0  0  0  0
   -4.5611    1.2900    0.4506 C   0  0  0  0  0  0  0  0  0  0  0  0
   -5.8989    1.4849    0.0793 C   0  0  0  0  0  0  0  0  0  0  0  0
   -6.4534    0.7420   -0.9561 C   0  0  0  0  0  0  0  0  0  0  0  0
   -5.6661   -0.1909   -1.6191 C   0  0  0  0  0  0  0  0  0  0  0  0
   -4.3332   -0.3765   -1.2417 C   0  0  0  0  0  0  0  0  0  0  0  0
   -3.6413   -1.3126   -1.9127 F   0  0  0  0  0  0  0  0  0  0  0  0
   -1.4424   -0.5154   -0.6616 C   0  0  0  0  0  0  0  0  0  0  0  0
    0.0089   -0.1674   -0.2768 C   0  0  0  0  0  0  0  0  0  0  0  0
    5.8326   -2.7114   -1.5549 H   0  0  0  0  0  0  0  0  0  0  0  0
    7.3012   -1.1563   -2.8132 H   0  0  0  0  0  0  0  0  0  0  0  0
    6.9417    1.2864   -2.6741 H   0  0  0  0  0  0  0  0  0  0  0  0
    5.1182    2.2038   -1.2870 H   0  0  0  0  0  0  0  0  0  0  0  0
   -0.5403   -0.2073    3.0576 H   0  0  0  0  0  0  0  0  0  0  0  0
   -1.1829   -1.5165    2.0596 H   0  0  0  0  0  0  0  0  0  0  0  0
   -1.6952    1.4893    1.6872 H   0  0  0  0  0  0  0  0  0  0  0  0
   -2.8393    0.2703    2.2859 H   0  0  0  0  0  0  0  0  0  0  0  0
   -4.1660    1.9170    1.2460 H   0  0  0  0  0  0  0  0  0  0  0  0
   -6.5006    2.2258    0.6003 H   0  0  0  0  0  0  0  0  0  0  0  0
   -7.4897    0.8911   -1.2460 H   0  0  0  0  0  0  0  0  0  0  0  0
   -6.0756   -0.7850   -2.4299 H   0  0  0  0  0  0  0  0  0  0  0  0
   -1.5773   -0.2313   -1.7118 H   0  0  0  0  0  0  0  0  0  0  0  0
   -1.5952   -1.5974   -0.5670 H   0  0  0  0  0  0  0  0  0  0  0  0
    0.6980   -0.7311   -0.9126 H   0  0  0  0  0  0  0  0  0  0  0  0
    0.1827    0.9006   -0.4504 H   0  0  0  0  0  0  0  0  0  0  0  0
  1  2  2  0
  2  3  1  0
  3  4  1  0
  4  5  1  0
  5  6  2  0
  6  7  1  0
  7  8  2  0
  8  9  1  0
  9 10  2  0
 10 11  1  0
 11 12  1  0
  2 13  1  0
 13 14  1  0
 14 15  1  0
 15 16  1  0
 16 17  1  0
 17 18  2  0
 18 19  1  0
 19 20  2  0
 20 21  1  0
 21 22  2  0
 22 23  1  0
 16 24  1  0
 24 25  1  0
 11  3  2  0
 25 13  1  0
 10  5  1  0
 22 17  1  0
  6 26  1  0
  7 27  1  0
  8 28  1  0
  9 29  1  0
 14 30  1  0
 14 31  1  0
 15 32  1  0
 15 33  1  0
 18 34  1  0
 19 35  1  0
 20 36  1  0
 21 37  1  0
 24 38  1  0
 24 39  1  0
 25 40  1  0
 25 41  1  0
M  END
$$$$
