
     RDKit          3D

 60 61  0  0  0  0  0  0  0  0999 V2000
   -0.6694    3.0373   -3.6676 C   0  0  0  0  0  0  0  0  0  0  0  0
   -0.8709    1.9163   -2.8173 O   0  0  0  0  0  0  0  0  0  0  0  0
   -0.0469    1.7791   -1.7298 C   0  0  0  0  0  0  0  0  0  0  0  0
    0.9837    2.6698   -1.4078 C   0  0  0  0  0  0  0  0  0  0  0  0
    1.7848    2.4554   -0.2828 C   0  0  0  0  0  0  0  0  0  0  0  0
    1.5701    1.3383    0.5295 C   0  0  0  0  0  0  0  0  0  0  0  0
    2.4130    1.0857    1.7239 C   0  0  0  0  0  0  0  0  0  0  0  0
    1.9103    0.5471    2.7088 O   0  0  0  0  0  0  0  0  0  0  0  0
    3.8534    1.4445    1.7477 C   0  0  0  0  0  0  0  0  0  0  0  0
    4.6609    1.3449    0.6810 C   0  0  0  0  0  0  0  0  0  0  0  0
    6.0976    1.6490    0.7247 C   0  0  0  0  0  0  0  0  0  0  0  0
    6.6861    2.2984   -0.3687 C   0  0  0  0  0  0  0  0  0  0  0  0
    8.0546    2.5798   -0.3729 C   0  0  0  0  0  0  0  0  0  0  0  0
    8.8398    2.2005    0.7085 C   0  0  0  0  0  0  0  0  0  0  0  0
   10.1703    2.4932    0.6618 O   0  0  0  0  0  0  0  0  0  0  0  0
    8.2802    1.5391    1.7958 C   0  0  0  0  0  0  0  0  0  0  0  0
    6.9101    1.2600    1.8002 C   0  0  0  0  0  0  0  0  0  0  0  0
    0.5120    0.4642    0.2328 C   0  0  0  0  0  0  0  0  0  0  0  0
    0.2366   -0.6132    1.0397 O   0  0  0  0  0  0  0  0  0  0  0  0
   -0.2930    0.6590   -0.9051 C   0  0  0  0  0  0  0  0  0  0  0  0
   -1.4265   -0.2993   -1.2205 C   0  0  0  0  0  0  0  0  0  0  0  0
   -2.7608    0.1910   -0.7171 C   0  0  0  0  0  0  0  0  0  0  0  0
   -3.5947   -0.4238    0.1465 C   0  0  0  0  0  0  0  0  0  0  0  0
   -4.8966    0.2236    0.5420 C   0  0  0  0  0  0  0  0  0  0  0  0
   -3.2988   -1.7509    0.8181 C   0  0  0  0  0  0  0  0  0  0  0  0
   -3.6117   -2.9861   -0.0376 C   0  0  0  0  0  0  0  0  0  0  0  0
   -5.0785   -3.1794   -0.3166 C   0  0  0  0  0  0  0  0  0  0  0  0
   -5.9413   -3.9781    0.3408 C   0  0  0  0  0  0  0  0  0  0  0  0
   -7.3794   -4.0764   -0.0935 C   0  0  0  0  0  0  0  0  0  0  0  0
   -5.5959   -4.8141    1.5419 C   0  0  0  0  0  0  0  0  0  0  0  0
   -1.4076    2.9822   -4.4732 H   0  0  0  0  0  0  0  0  0  0  0  0
   -0.8344    3.9755   -3.1285 H   0  0  0  0  0  0  0  0  0  0  0  0
    0.3245    3.0112   -4.1258 H   0  0  0  0  0  0  0  0  0  0  0  0
    1.1864    3.5490   -2.0113 H   0  0  0  0  0  0  0  0  0  0  0  0
    2.5622    3.1791   -0.0493 H   0  0  0  0  0  0  0  0  0  0  0  0
    4.2242    1.7168    2.7304 H   0  0  0  0  0  0  0  0  0  0  0  0
    4.2858    1.0209   -0.2869 H   0  0  0  0  0  0  0  0  0  0  0  0
    6.0867    2.5983   -1.2252 H   0  0  0  0  0  0  0  0  0  0  0  0
    8.5061    3.0898   -1.2194 H   0  0  0  0  0  0  0  0  0  0  0  0
   10.5895    2.1644    1.4741 H   0  0  0  0  0  0  0  0  0  0  0  0
    8.8872    1.2278    2.6404 H   0  0  0  0  0  0  0  0  0  0  0  0
    6.4893    0.7230    2.6476 H   0  0  0  0  0  0  0  0  0  0  0  0
    0.6808   -0.4708    1.9046 H   0  0  0  0  0  0  0  0  0  0  0  0
   -1.1862   -1.2987   -0.8445 H   0  0  0  0  0  0  0  0  0  0  0  0
   -1.4949   -0.4362   -2.3074 H   0  0  0  0  0  0  0  0  0  0  0  0
   -3.0648    1.1489   -1.1376 H   0  0  0  0  0  0  0  0  0  0  0  0
   -5.7451   -0.4067    0.2609 H   0  0  0  0  0  0  0  0  0  0  0  0
   -5.0374    1.1974    0.0616 H   0  0  0  0  0  0  0  0  0  0  0  0
   -4.9266    0.3838    1.6242 H   0  0  0  0  0  0  0  0  0  0  0  0
   -2.2407   -1.7840    1.1017 H   0  0  0  0  0  0  0  0  0  0  0  0
   -3.8429   -1.8126    1.7694 H   0  0  0  0  0  0  0  0  0  0  0  0
   -3.1937   -3.8722    0.4526 H   0  0  0  0  0  0  0  0  0  0  0  0
   -3.0890   -2.9206   -0.9998 H   0  0  0  0  0  0  0  0  0  0  0  0
   -5.4442   -2.6008   -1.1652 H   0  0  0  0  0  0  0  0  0  0  0  0
   -7.6332   -5.1136   -0.3329 H   0  0  0  0  0  0  0  0  0  0  0  0
   -7.5883   -3.4706   -0.9817 H   0  0  0  0  0  0  0  0  0  0  0  0
   -8.0415   -3.7312    0.7073 H   0  0  0  0  0  0  0  0  0  0  0  0
   -5.6712   -5.8777    1.2941 H   0  0  0  0  0  0  0  0  0  0  0  0
   -4.5895   -4.6267    1.9236 H   0  0  0  0  0  0  0  0  0  0  0  0
   -6.2907   -4.6009    2.3613 H   0  0  0  0  0  0  0  0  0  0  0  0
  1  2  1  0
  2  3  1  0
  3  4  2  0
  4  5  1  0
  5  6  2  0
  6  7  1  0
  7  8  2  0
  7  9  1  0
  9 10  2  3
 10 11  1  0
 11 12  2  0
 12 13  1  0
 13 14  2  0
 14 15  1  0
 14 16  1  0
 16 17  2  0
  6 18  1  0
 18 19  1  0
 18 20  2  0
 20 21  1  0
 21 22  1  0
 22 23  2  3
 23 24  1  0
 23 25  1  0
 25 26  1  0
 26 27  1  0
 27 28  2  3
 28 29  1  0
 28 30  1  0
 20  3  1  0
 17 11  1  0
  1 31  1  0
  1 32  1  0
  1 33  1  0
  4 34  1  0
  5 35  1  0
  9 36  1  0
 10 37  1  0
 12 38  1  0
 13 39  1  0
 15 40  1  0
 16 41  1  0
 17 42  1  0
 19 43  1  0
 21 44  1  0
 21 45  1  0
 22 46  1  0
 24 47  1  0
 24 48  1  0
 24 49  1  0
 25 50  1  0
 25 51  1  0
 26 52  1  0
 26 53  1  0
 27 54  1  0
 29 55  1  0
 29 56  1  0
 29 57  1  0
 30 58  1  0
 30 59  1  0
 30 60  1  0
M  END
$$$$
