
     RDKit          3D

 61 63  0  0  0  0  0  0  0  0999 V2000
   -5.0106    0.7421    1.0347 C   0  0  0  0  0  0  0  0  0  0  0  0
   -4.4717    0.9910   -0.3663 C   0  0  0  0  0  0  0  0  0  0  0  0
   -3.0419    1.5336   -0.3836 C   0  0  0  0  0  0  0  0  0  0  0  0
   -2.0191    0.5501    0.1802 C   0  0  0  0  0  0  0  0  0  0  0  0
   -0.6702    1.0716    0.0761 N   0  0  0  0  0  0  0  0  0  0  0  0
    0.0914    0.9103   -1.0606 C   0  0  0  0  0  0  0  0  0  0  0  0
   -0.3114    0.3335   -2.0704 O   0  0  0  0  0  0  0  0  0  0  0  0
    1.5038    1.4996   -0.9801 C   0  0  0  0  0  0  0  0  0  0  0  0
    1.4478    2.9416   -1.5064 C   0  0  0  0  0  0  0  0  0  0  0  0
    2.6467    3.7638   -1.0943 C   0  0  0  0  0  0  0  0  0  0  0  0
    2.5874    4.5915    0.0361 C   0  0  0  0  0  0  0  0  0  0  0  0
    3.7005    5.3394    0.4232 C   0  0  0  0  0  0  0  0  0  0  0  0
    4.8826    5.2640   -0.3124 C   0  0  0  0  0  0  0  0  0  0  0  0
    4.9521    4.4438   -1.4357 C   0  0  0  0  0  0  0  0  0  0  0  0
    3.8407    3.6953   -1.8250 C   0  0  0  0  0  0  0  0  0  0  0  0
    2.3976    0.6715   -1.8323 N   0  0  0  0  0  0  0  0  0  0  0  0
    3.2172   -0.6152   -1.1309 S   0  0  0  0  0  6  0  0  0  0  0  0
    3.8513   -0.1487    0.0814 O   0  0  0  0  0  0  0  0  0  0  0  0
    3.9694   -1.2550   -2.1876 O   0  0  0  0  0  0  0  0  0  0  0  0
    1.9165   -1.7291   -0.6580 C   0  0  0  0  0  0  0  0  0  0  0  0
    1.4870   -2.7151   -1.5451 C   0  0  0  0  0  0  0  0  0  0  0  0
    0.4485   -3.5769   -1.1724 C   0  0  0  0  0  0  0  0  0  0  0  0
   -0.1777   -3.4573    0.0802 C   0  0  0  0  0  0  0  0  0  0  0  0
    0.2776   -2.4690    0.9519 C   0  0  0  0  0  0  0  0  0  0  0  0
    1.3424   -1.6249    0.6077 C   0  0  0  0  0  0  0  0  0  0  0  0
   -0.4045   -2.2744    2.2385 C   0  0  0  0  0  0  0  0  0  0  0  0
   -0.1144   -1.2935    2.9208 O   0  0  0  0  0  0  0  0  0  0  0  0
   -1.3727   -3.2040    2.5753 N   0  0  0  0  0  0  0  0  0  0  0  0
   -2.0323   -3.0728    3.8618 C   0  0  0  0  0  0  0  0  0  0  0  0
   -1.8574   -4.1926    1.7257 C   0  0  0  0  0  0  0  0  0  0  0  0
   -2.7868   -4.9286    2.0668 O   0  0  0  0  0  0  0  0  0  0  0  0
   -1.2526   -4.2968    0.4763 N   0  0  0  0  0  0  0  0  0  0  0  0
   -1.7418   -5.3206   -0.4391 C   0  0  0  0  0  0  0  0  0  0  0  0
   -4.4682   -0.0670    1.5339 H   0  0  0  0  0  0  0  0  0  0  0  0
   -4.9355    1.6439    1.6521 H   0  0  0  0  0  0  0  0  0  0  0  0
   -6.0646    0.4521    0.9848 H   0  0  0  0  0  0  0  0  0  0  0  0
   -4.5242    0.0615   -0.9462 H   0  0  0  0  0  0  0  0  0  0  0  0
   -5.1242    1.7160   -0.8688 H   0  0  0  0  0  0  0  0  0  0  0  0
   -2.7776    1.7778   -1.4205 H   0  0  0  0  0  0  0  0  0  0  0  0
   -2.9949    2.4776    0.1745 H   0  0  0  0  0  0  0  0  0  0  0  0
   -2.1997    0.3611    1.2428 H   0  0  0  0  0  0  0  0  0  0  0  0
   -2.0736   -0.4058   -0.3525 H   0  0  0  0  0  0  0  0  0  0  0  0
   -0.2712    1.5053    0.9023 H   0  0  0  0  0  0  0  0  0  0  0  0
    1.8486    1.4920    0.0600 H   0  0  0  0  0  0  0  0  0  0  0  0
    0.5412    3.4441   -1.1434 H   0  0  0  0  0  0  0  0  0  0  0  0
    1.3636    2.9531   -2.6015 H   0  0  0  0  0  0  0  0  0  0  0  0
    1.6755    4.6641    0.6239 H   0  0  0  0  0  0  0  0  0  0  0  0
    3.6477    5.9817    1.2995 H   0  0  0  0  0  0  0  0  0  0  0  0
    5.7497    5.8436   -0.0076 H   0  0  0  0  0  0  0  0  0  0  0  0
    5.8748    4.3801   -2.0078 H   0  0  0  0  0  0  0  0  0  0  0  0
    3.9155    3.0510   -2.6996 H   0  0  0  0  0  0  0  0  0  0  0  0
    1.9951    0.4291   -2.7426 H   0  0  0  0  0  0  0  0  0  0  0  0
    1.9440   -2.8174   -2.5279 H   0  0  0  0  0  0  0  0  0  0  0  0
    0.1418   -4.3282   -1.8951 H   0  0  0  0  0  0  0  0  0  0  0  0
    1.6934   -0.8730    1.3124 H   0  0  0  0  0  0  0  0  0  0  0  0
   -2.0452   -4.0472    4.3640 H   0  0  0  0  0  0  0  0  0  0  0  0
   -3.0677   -2.7535    3.6949 H   0  0  0  0  0  0  0  0  0  0  0  0
   -1.5346   -2.3478    4.5120 H   0  0  0  0  0  0  0  0  0  0  0  0
   -2.5916   -5.8726   -0.0283 H   0  0  0  0  0  0  0  0  0  0  0  0
   -0.9408   -6.0396   -0.6373 H   0  0  0  0  0  0  0  0  0  0  0  0
   -2.0724   -4.8500   -1.3701 H   0  0  0  0  0  0  0  0  0  0  0  0
  1  2  1  0
  2  3  1  0
  3  4  1  0
  4  5  1  0
  5  6  1  0
  6  7  2  0
  6  8  1  0
  8  9  1  0
  9 10  1  0
 10 11  2  0
 11 12  1  0
 12 13  2  0
 13 14  1  0
 14 15  2  0
  8 16  1  0
 16 17  1  0
 17 18  2  0
 17 19  2  0
 17 20  1  0
 20 21  2  0
 21 22  1  0
 22 23  2  0
 23 24  1  0
 24 25  2  0
 24 26  1  0
 26 27  2  0
 26 28  1  0
 28 29  1  0
 28 30  1  0
 30 31  2  0
 30 32  1  0
 32 33  1  0
 15 10  1  0
 25 20  1  0
 32 23  1  0
  1 34  1  0
  1 35  1  0
  1 36  1  0
  2 37  1  0
  2 38  1  0
  3 39  1  0
  3 40  1  0
  4 41  1  0
  4 42  1  0
  5 43  1  0
  8 44  1  0
  9 45  1  0
  9 46  1  0
 11 47  1  0
 12 48  1  0
 13 49  1  0
 14 50  1  0
 15 51  1  0
 16 52  1  0
 21 53  1  0
 22 54  1  0
 25 55  1  0
 29 56  1  0
 29 57  1  0
 29 58  1  0
 33 59  1  0
 33 60  1  0
 33 61  1  0
M  END
$$$$
