
     RDKit          3D

 45 48  0  0  0  0  0  0  0  0999 V2000
   -3.3551   -2.7601   -1.0811 C   0  0  0  0  0  0  0  0  0  0  0  0
   -3.1837   -1.3836   -0.5457 C   0  0  0  0  0  0  0  0  0  0  0  0
   -4.1304   -0.3653   -0.5556 C   0  0  0  0  0  0  0  0  0  0  0  0
   -5.3743   -0.3153   -1.0157 O   0  0  0  0  0  0  0  0  0  0  0  0
   -3.5684    0.7251    0.0378 N   0  0  0  0  0  0  0  0  0  0  0  0
   -2.2863    0.4468    0.4329 C   0  0  0  0  0  0  0  0  0  0  0  0
   -1.4206    1.3266    1.0854 C   0  0  0  0  0  0  0  0  0  0  0  0
   -0.1496    0.8330    1.3786 C   0  0  0  0  0  0  0  0  0  0  0  0
    0.1852   -0.4868    1.0399 C   0  0  0  0  0  0  0  0  0  0  0  0
    1.8154   -1.0724    1.4351 S   0  0  0  0  0  6  0  0  0  0  0  0
    1.9207   -2.4604    1.0343 O   0  0  0  0  0  0  0  0  0  0  0  0
    2.1010   -0.6632    2.7943 O   0  0  0  0  0  0  0  0  0  0  0  0
    2.8110   -0.1627    0.3807 N   0  0  0  0  0  0  0  0  0  0  0  0
    2.5209   -0.3301   -1.0719 C   0  0  0  0  0  0  0  0  0  0  0  0
    3.6107    0.3257   -1.9110 C   0  0  0  0  0  0  0  0  0  0  0  0
    4.9652   -0.3418   -1.6838 C   0  0  0  0  0  0  0  0  0  0  0  0
    5.0766   -0.9659   -0.2948 C   0  0  0  0  0  0  0  0  0  0  0  0
    4.2614   -0.1947    0.7340 C   0  0  0  0  0  0  0  0  0  0  0  0
   -0.7253   -1.3560    0.4070 C   0  0  0  0  0  0  0  0  0  0  0  0
   -2.0038   -0.8617    0.0875 C   0  0  0  0  0  0  0  0  0  0  0  0
   -1.8957    2.7224    1.3675 C   0  0  0  0  0  0  0  0  0  0  0  0
   -3.4399    2.7610    1.4461 C   0  0  0  0  0  0  0  0  0  0  0  0
   -4.1321    2.0458    0.2658 C   0  0  0  0  0  0  0  0  0  0  0  0
   -3.8706   -2.7393   -2.0468 H   0  0  0  0  0  0  0  0  0  0  0  0
   -2.3914   -3.2562   -1.2312 H   0  0  0  0  0  0  0  0  0  0  0  0
   -3.9469   -3.3641   -0.3860 H   0  0  0  0  0  0  0  0  0  0  0  0
   -5.5845   -1.1938   -1.3770 H   0  0  0  0  0  0  0  0  0  0  0  0
    0.5823    1.4693    1.8728 H   0  0  0  0  0  0  0  0  0  0  0  0
    2.4381   -1.3911   -1.3327 H   0  0  0  0  0  0  0  0  0  0  0  0
    1.5680    0.1569   -1.3029 H   0  0  0  0  0  0  0  0  0  0  0  0
    3.6829    1.3886   -1.6467 H   0  0  0  0  0  0  0  0  0  0  0  0
    3.3520    0.2829   -2.9749 H   0  0  0  0  0  0  0  0  0  0  0  0
    5.1326   -1.1204   -2.4376 H   0  0  0  0  0  0  0  0  0  0  0  0
    5.7575    0.4025   -1.8277 H   0  0  0  0  0  0  0  0  0  0  0  0
    6.1295   -1.0063    0.0063 H   0  0  0  0  0  0  0  0  0  0  0  0
    4.7220   -2.0037   -0.3348 H   0  0  0  0  0  0  0  0  0  0  0  0
    4.4220   -0.6379    1.7222 H   0  0  0  0  0  0  0  0  0  0  0  0
    4.6121    0.8423    0.8012 H   0  0  0  0  0  0  0  0  0  0  0  0
   -0.4504   -2.3781    0.1652 H   0  0  0  0  0  0  0  0  0  0  0  0
   -1.5472    3.3840    0.5660 H   0  0  0  0  0  0  0  0  0  0  0  0
   -1.4772    3.0828    2.3137 H   0  0  0  0  0  0  0  0  0  0  0  0
   -3.7527    2.2714    2.3787 H   0  0  0  0  0  0  0  0  0  0  0  0
   -3.7826    3.8002    1.5031 H   0  0  0  0  0  0  0  0  0  0  0  0
   -5.2025    1.9337    0.4652 H   0  0  0  0  0  0  0  0  0  0  0  0
   -3.9959    2.6100   -0.6634 H   0  0  0  0  0  0  0  0  0  0  0  0
  1  2  1  0
  2  3  2  0
  3  4  1  0
  3  5  1  0
  5  6  1  0
  6  7  2  0
  7  8  1  0
  8  9  2  0
  9 10  1  0
 10 11  2  0
 10 12  2  0
 10 13  1  0
 13 14  1  0
 14 15  1  0
 15 16  1  0
 16 17  1  0
 17 18  1  0
  9 19  1  0
 19 20  2  0
  7 21  1  0
 21 22  1  0
 22 23  1  0
 20  2  1  0
 23  5  1  0
 20  6  1  0
 18 13  1  0
  1 24  1  0
  1 25  1  0
  1 26  1  0
  4 27  1  0
  8 28  1  0
 14 29  1  0
 14 30  1  0
 15 31  1  0
 15 32  1  0
 16 33  1  0
 16 34  1  0
 17 35  1  0
 17 36  1  0
 18 37  1  0
 18 38  1  0
 19 39  1  0
 21 40  1  0
 21 41  1  0
 22 42  1  0
 22 43  1  0
 23 44  1  0
 23 45  1  0
M  END
$$$$
