
     RDKit          3D

 47 49  0  0  0  0  0  0  0  0999 V2000
    5.9164   -1.6063    1.7838 C   0  0  0  0  0  0  0  0  0  0  0  0
    4.4375   -1.9727    1.7153 C   0  0  0  0  0  0  0  0  0  0  0  0
    3.9770   -2.2056    0.3396 N   0  0  0  0  0  0  0  0  0  0  0  0
    3.9232   -0.9768   -0.4808 C   0  0  0  0  0  0  0  0  0  0  0  0
    2.8198    0.0355   -0.0965 C   0  0  0  0  0  0  0  0  0  0  0  0
    1.4728   -0.5912   -0.0453 N   0  0  0  0  0  0  0  0  0  0  0  0
    0.2949    0.1758   -0.1948 C   0  0  0  0  0  0  0  0  0  0  0  0
   -0.9376   -0.3662   -0.3137 C   0  0  0  0  0  0  0  0  0  0  0  0
   -2.1516    0.4192   -0.4683 C   0  0  0  0  0  0  0  0  0  0  0  0
   -3.3550   -0.0846   -0.1416 C   0  0  0  0  0  0  0  0  0  0  0  0
   -4.5708    0.7308   -0.1110 C   0  0  0  0  0  0  0  0  0  0  0  0
   -5.8204    0.2041   -0.1142 C   0  0  0  0  0  0  0  0  0  0  0  0
   -6.9785    1.0325   -0.0437 C   0  0  0  0  0  0  0  0  0  0  0  0
   -7.9131    1.7180    0.0159 N   0  0  0  0  0  0  0  0  0  0  0  0
   -6.0490   -1.2017   -0.1924 C   0  0  0  0  0  0  0  0  0  0  0  0
   -6.2232   -2.3480   -0.2488 N   0  0  0  0  0  0  0  0  0  0  0  0
   -4.2788    2.2226   -0.0149 C   0  0  0  0  0  0  0  0  0  0  0  0
   -3.2445    2.6495   -1.0521 C   0  0  0  0  0  0  0  0  0  0  0  0
   -1.9471    1.8319   -0.9699 C   0  0  0  0  0  0  0  0  0  0  0  0
   -0.8781    2.4835   -0.0936 C   0  0  0  0  0  0  0  0  0  0  0  0
    0.4389    1.7007   -0.2171 C   0  0  0  0  0  0  0  0  0  0  0  0
    1.4730   -1.8565    0.7382 C   0  0  0  0  0  0  0  0  0  0  0  0
    2.6226   -2.8028    0.3223 C   0  0  0  0  0  0  0  0  0  0  0  0
    6.1130   -0.6167    1.3612 H   0  0  0  0  0  0  0  0  0  0  0  0
    6.2468   -1.5876    2.8278 H   0  0  0  0  0  0  0  0  0  0  0  0
    6.5311   -2.3405    1.2525 H   0  0  0  0  0  0  0  0  0  0  0  0
    3.8487   -1.2056    2.2303 H   0  0  0  0  0  0  0  0  0  0  0  0
    4.3165   -2.8997    2.2902 H   0  0  0  0  0  0  0  0  0  0  0  0
    4.8948   -0.4714   -0.4888 H   0  0  0  0  0  0  0  0  0  0  0  0
    3.7568   -1.2831   -1.5229 H   0  0  0  0  0  0  0  0  0  0  0  0
    2.8412    0.8287   -0.8520 H   0  0  0  0  0  0  0  0  0  0  0  0
    3.0433    0.4954    0.8732 H   0  0  0  0  0  0  0  0  0  0  0  0
   -1.0697   -1.4426   -0.2879 H   0  0  0  0  0  0  0  0  0  0  0  0
   -3.4252   -1.1255    0.1723 H   0  0  0  0  0  0  0  0  0  0  0  0
   -5.1757    2.8337   -0.1581 H   0  0  0  0  0  0  0  0  0  0  0  0
   -3.9073    2.4485    0.9934 H   0  0  0  0  0  0  0  0  0  0  0  0
   -3.0363    3.7217   -0.9565 H   0  0  0  0  0  0  0  0  0  0  0  0
   -3.6815    2.5122   -2.0511 H   0  0  0  0  0  0  0  0  0  0  0  0
   -1.5502    1.7809   -1.9950 H   0  0  0  0  0  0  0  0  0  0  0  0
   -0.7060    3.5234   -0.3958 H   0  0  0  0  0  0  0  0  0  0  0  0
   -1.2000    2.5056    0.9561 H   0  0  0  0  0  0  0  0  0  0  0  0
    0.9190    1.9862   -1.1618 H   0  0  0  0  0  0  0  0  0  0  0  0
    1.0958    2.0270    0.5980 H   0  0  0  0  0  0  0  0  0  0  0  0
    0.5402   -2.4125    0.6071 H   0  0  0  0  0  0  0  0  0  0  0  0
    1.5489   -1.6105    1.8042 H   0  0  0  0  0  0  0  0  0  0  0  0
    2.6018   -3.7008    0.9521 H   0  0  0  0  0  0  0  0  0  0  0  0
    2.4259   -3.1587   -0.6981 H   0  0  0  0  0  0  0  0  0  0  0  0
  1  2  1  0
  2  3  1  0
  3  4  1  0
  4  5  1  0
  5  6  1  0
  6  7  1  0
  7  8  2  0
  8  9  1  0
  9 10  2  0
 10 11  1  0
 11 12  2  3
 12 13  1  0
 13 14  3  0
 12 15  1  0
 15 16  3  0
 11 17  1  0
 17 18  1  0
 18 19  1  0
 19 20  1  0
 20 21  1  0
  6 22  1  0
 22 23  1  0
 23  3  1  0
 21  7  1  0
 19  9  1  0
  1 24  1  0
  1 25  1  0
  1 26  1  0
  2 27  1  0
  2 28  1  0
  4 29  1  0
  4 30  1  0
  5 31  1  0
  5 32  1  0
  8 33  1  0
 10 34  1  0
 17 35  1  0
 17 36  1  0
 18 37  1  0
 18 38  1  0
 19 39  1  0
 20 40  1  0
 20 41  1  0
 21 42  1  0
 21 43  1  0
 22 44  1  0
 22 45  1  0
 23 46  1  0
 23 47  1  0
M  END
$$$$
