
     RDKit          3D

 46 48  0  0  0  0  0  0  0  0999 V2000
   -3.1272    5.0502   -1.6796 C   0  0  0  0  0  0  0  0  0  0  0  0
   -3.1480    3.6257   -1.1582 C   0  0  0  0  0  0  0  0  0  0  0  0
   -1.8934    3.3054   -0.5451 O   0  0  0  0  0  0  0  0  0  0  0  0
   -0.9415    2.8425   -1.3757 C   0  0  0  0  0  0  0  0  0  0  0  0
   -1.0080    2.6445   -2.5759 O   0  0  0  0  0  0  0  0  0  0  0  0
    0.3021    2.5138   -0.5993 C   0  0  0  0  0  0  0  0  0  0  0  0
    0.9060    3.3569    0.1837 N   0  0  0  0  0  0  0  0  0  0  0  0
    2.0316    2.7214    0.6351 N   0  0  0  0  0  0  0  0  0  0  0  0
    2.1666    1.3584    0.1052 C   0  0  0  0  0  0  0  0  0  0  0  0
    2.4841    0.3804    1.2407 C   0  0  0  0  0  0  0  0  0  0  0  0
    2.4974    0.7328    2.4217 O   0  0  0  0  0  0  0  0  0  0  0  0
    2.7983   -1.0399    0.9037 C   0  0  0  0  0  0  0  0  0  0  0  0
    2.6273   -2.0085    1.9017 C   0  0  0  0  0  0  0  0  0  0  0  0
    2.8889   -3.3524    1.6317 C   0  0  0  0  0  0  0  0  0  0  0  0
    3.3296   -3.7350    0.3665 C   0  0  0  0  0  0  0  0  0  0  0  0
    3.5124   -2.7756   -0.6286 C   0  0  0  0  0  0  0  0  0  0  0  0
    3.2495   -1.4286   -0.3638 C   0  0  0  0  0  0  0  0  0  0  0  0
    0.8779    1.1311   -0.6987 C   0  0  0  0  0  0  0  0  0  0  0  0
   -0.0906    0.0782   -0.2043 C   0  0  0  0  0  0  0  0  0  0  0  0
   -0.6903    0.1607    1.0604 C   0  0  0  0  0  0  0  0  0  0  0  0
   -1.5689   -0.8343    1.4943 C   0  0  0  0  0  0  0  0  0  0  0  0
   -1.8707   -1.9258    0.6795 C   0  0  0  0  0  0  0  0  0  0  0  0
   -2.7416   -2.8259    1.2274 O   0  0  0  0  0  0  0  0  0  0  0  0
   -3.0675   -3.9657    0.4425 C   0  0  0  0  0  0  0  0  0  0  0  0
   -1.2861   -2.0118   -0.5827 C   0  0  0  0  0  0  0  0  0  0  0  0
   -0.4049   -1.0168   -1.0217 C   0  0  0  0  0  0  0  0  0  0  0  0
   -4.0997    5.3243   -2.0982 H   0  0  0  0  0  0  0  0  0  0  0  0
   -2.8782    5.7505   -0.8755 H   0  0  0  0  0  0  0  0  0  0  0  0
   -2.3654    5.1728   -2.4560 H   0  0  0  0  0  0  0  0  0  0  0  0
   -3.3962    2.9128   -1.9532 H   0  0  0  0  0  0  0  0  0  0  0  0
   -3.9176    3.5271   -0.3856 H   0  0  0  0  0  0  0  0  0  0  0  0
    2.2767    2.9028    1.6135 H   0  0  0  0  0  0  0  0  0  0  0  0
    3.0382    1.4161   -0.5569 H   0  0  0  0  0  0  0  0  0  0  0  0
    2.2785   -1.7211    2.8922 H   0  0  0  0  0  0  0  0  0  0  0  0
    2.7475   -4.0985    2.4098 H   0  0  0  0  0  0  0  0  0  0  0  0
    3.5354   -4.7822    0.1580 H   0  0  0  0  0  0  0  0  0  0  0  0
    3.8656   -3.0787   -1.6116 H   0  0  0  0  0  0  0  0  0  0  0  0
    3.4187   -0.7108   -1.1597 H   0  0  0  0  0  0  0  0  0  0  0  0
    1.1325    0.9486   -1.7503 H   0  0  0  0  0  0  0  0  0  0  0  0
   -0.4758    0.9930    1.7313 H   0  0  0  0  0  0  0  0  0  0  0  0
   -2.0200   -0.7581    2.4812 H   0  0  0  0  0  0  0  0  0  0  0  0
   -2.1778   -4.5691    0.2337 H   0  0  0  0  0  0  0  0  0  0  0  0
   -3.5751   -3.6751   -0.4833 H   0  0  0  0  0  0  0  0  0  0  0  0
   -3.7602   -4.5837    1.0218 H   0  0  0  0  0  0  0  0  0  0  0  0
   -1.4935   -2.8398   -1.2524 H   0  0  0  0  0  0  0  0  0  0  0  0
    0.0333   -1.1129   -2.0136 H   0  0  0  0  0  0  0  0  0  0  0  0
  1  2  1  0
  2  3  1  0
  3  4  1  0
  4  5  2  0
  4  6  1  0
  6  7  2  0
  7  8  1  0
  8  9  1  0
  9 10  1  0
 10 11  2  0
 10 12  1  0
 12 13  2  0
 13 14  1  0
 14 15  2  0
 15 16  1  0
 16 17  2  0
  9 18  1  0
 18 19  1  0
 19 20  2  0
 20 21  1  0
 21 22  2  0
 22 23  1  0
 23 24  1  0
 22 25  1  0
 25 26  2  0
 18  6  1  0
 26 19  1  0
 17 12  1  0
  1 27  1  0
  1 28  1  0
  1 29  1  0
  2 30  1  0
  2 31  1  0
  8 32  1  0
  9 33  1  0
 13 34  1  0
 14 35  1  0
 15 36  1  0
 16 37  1  0
 17 38  1  0
 18 39  1  0
 20 40  1  0
 21 41  1  0
 24 42  1  0
 24 43  1  0
 24 44  1  0
 25 45  1  0
 26 46  1  0
M  END
$$$$
