
     RDKit          3D

 50 54  0  0  0  0  0  0  0  0999 V2000
    7.9941   -0.8082   -0.2383 F   0  0  0  0  0  0  0  0  0  0  0  0
    6.7570   -0.3326   -0.0439 C   0  0  0  0  0  0  0  0  0  0  0  0
    6.1702    0.4664   -1.0171 C   0  0  0  0  0  0  0  0  0  0  0  0
    4.8816    0.9611   -0.8140 C   0  0  0  0  0  0  0  0  0  0  0  0
    4.1780    0.6552    0.3634 C   0  0  0  0  0  0  0  0  0  0  0  0
    2.7802    1.1994    0.5821 C   0  0  0  0  0  0  0  0  0  0  0  0
    1.8170    0.7474   -0.4334 N   0  0  0  0  0  0  0  0  0  0  0  0
    0.5236    1.4604   -0.3087 C   0  0  0  0  0  0  0  0  0  0  0  0
   -0.5592    0.6984    0.4868 C   0  0  0  0  0  0  0  0  0  0  0  0
   -0.8795   -0.5975   -0.1564 N   0  0  0  0  0  0  0  0  0  0  0  0
   -1.4506   -1.4697    0.7853 C   0  0  0  0  0  0  0  0  0  0  0  0
   -0.6541   -2.3721    1.4123 N   0  0  0  0  0  0  0  0  0  0  0  0
   -1.1849   -3.1857    2.3344 C   0  0  0  0  0  0  0  0  0  0  0  0
   -2.4503   -3.2285    2.7447 N   0  0  0  0  0  0  0  0  0  0  0  0
   -3.2246   -2.3392    2.1021 C   0  0  0  0  0  0  0  0  0  0  0  0
   -4.8825   -2.2438    2.4779 S   0  0  0  0  0  0  0  0  0  0  0  0
   -5.1315   -1.0164    1.3222 C   0  0  0  0  0  0  0  0  0  0  0  0
   -3.9680   -0.6663    0.6603 C   0  0  0  0  0  0  0  0  0  0  0  0
   -4.0183    0.3497   -0.3866 C   0  0  0  0  0  0  0  0  0  0  0  0
   -4.4751    1.6435   -0.0985 C   0  0  0  0  0  0  0  0  0  0  0  0
   -4.5250    2.6134   -1.1022 C   0  0  0  0  0  0  0  0  0  0  0  0
   -4.1210    2.2972   -2.3983 C   0  0  0  0  0  0  0  0  0  0  0  0
   -3.6682    1.0122   -2.6934 C   0  0  0  0  0  0  0  0  0  0  0  0
   -3.6197    0.0402   -1.6919 C   0  0  0  0  0  0  0  0  0  0  0  0
   -2.8282   -1.4391    1.1216 C   0  0  0  0  0  0  0  0  0  0  0  0
    0.2486   -1.1836   -0.9161 C   0  0  0  0  0  0  0  0  0  0  0  0
    1.6162   -0.7249   -0.3664 C   0  0  0  0  0  0  0  0  0  0  0  0
    4.7904   -0.1537    1.3339 C   0  0  0  0  0  0  0  0  0  0  0  0
    6.0799   -0.6472    1.1285 C   0  0  0  0  0  0  0  0  0  0  0  0
    6.7154    0.6966   -1.9264 H   0  0  0  0  0  0  0  0  0  0  0  0
    4.4156    1.5797   -1.5787 H   0  0  0  0  0  0  0  0  0  0  0  0
    2.4262    0.9534    1.5920 H   0  0  0  0  0  0  0  0  0  0  0  0
    2.8690    2.2937    0.5486 H   0  0  0  0  0  0  0  0  0  0  0  0
    0.6604    2.4603    0.1209 H   0  0  0  0  0  0  0  0  0  0  0  0
    0.1481    1.6289   -1.3268 H   0  0  0  0  0  0  0  0  0  0  0  0
   -0.2018    0.5577    1.5168 H   0  0  0  0  0  0  0  0  0  0  0  0
   -1.4596    1.3190    0.5359 H   0  0  0  0  0  0  0  0  0  0  0  0
   -0.5026   -3.8880    2.8028 H   0  0  0  0  0  0  0  0  0  0  0  0
   -6.1266   -0.6176    1.1742 H   0  0  0  0  0  0  0  0  0  0  0  0
   -4.7867    1.9084    0.9091 H   0  0  0  0  0  0  0  0  0  0  0  0
   -4.8782    3.6153   -0.8726 H   0  0  0  0  0  0  0  0  0  0  0  0
   -4.1585    3.0520   -3.1797 H   0  0  0  0  0  0  0  0  0  0  0  0
   -3.3497    0.7646   -3.7026 H   0  0  0  0  0  0  0  0  0  0  0  0
   -3.2575   -0.9561   -1.9356 H   0  0  0  0  0  0  0  0  0  0  0  0
    0.1544   -0.8502   -1.9580 H   0  0  0  0  0  0  0  0  0  0  0  0
    0.1997   -2.2793   -0.9566 H   0  0  0  0  0  0  0  0  0  0  0  0
    1.7044   -1.0802    0.6687 H   0  0  0  0  0  0  0  0  0  0  0  0
    2.4071   -1.2130   -0.9473 H   0  0  0  0  0  0  0  0  0  0  0  0
    4.2652   -0.4067    2.2521 H   0  0  0  0  0  0  0  0  0  0  0  0
    6.5594   -1.2745    1.8729 H   0  0  0  0  0  0  0  0  0  0  0  0
  1  2  1  0
  2  3  2  0
  3  4  1  0
  4  5  2  0
  5  6  1  0
  6  7  1  0
  7  8  1  0
  8  9  1  0
  9 10  1  0
 10 11  1  0
 11 12  2  0
 12 13  1  0
 13 14  2  0
 14 15  1  0
 15 16  1  0
 16 17  1  0
 17 18  2  0
 18 19  1  0
 19 20  2  0
 20 21  1  0
 21 22  2  0
 22 23  1  0
 23 24  2  0
 18 25  1  0
 10 26  1  0
 26 27  1  0
  5 28  1  0
 28 29  2  0
 29  2  1  0
 27  7  1  0
 25 11  1  0
 25 15  2  0
 24 19  1  0
  3 30  1  0
  4 31  1  0
  6 32  1  0
  6 33  1  0
  8 34  1  0
  8 35  1  0
  9 36  1  0
  9 37  1  0
 13 38  1  0
 17 39  1  0
 20 40  1  0
 21 41  1  0
 22 42  1  0
 23 43  1  0
 24 44  1  0
 26 45  1  0
 26 46  1  0
 27 47  1  0
 27 48  1  0
 28 49  1  0
 29 50  1  0
M  END
$$$$
