
     RDKit          3D

 41 43  0  0  0  0  0  0  0  0999 V2000
   -1.9629    2.9077   -0.5215 O   0  0  0  0  0  0  0  0  0  0  0  0
   -2.7487    1.9623   -0.5908 C   0  0  0  0  0  0  0  0  0  0  0  0
   -4.2291    2.1327   -0.2920 C   0  0  0  0  0  0  0  0  0  0  0  0
   -4.9027    0.9186    0.3032 C   0  0  0  0  0  0  0  0  0  0  0  0
   -5.8749    0.2154   -0.4215 C   0  0  0  0  0  0  0  0  0  0  0  0
   -6.4711   -0.9240    0.1204 C   0  0  0  0  0  0  0  0  0  0  0  0
   -6.1023   -1.3699    1.3883 C   0  0  0  0  0  0  0  0  0  0  0  0
   -5.1398   -0.6753    2.1182 C   0  0  0  0  0  0  0  0  0  0  0  0
   -4.5431    0.4654    1.5809 C   0  0  0  0  0  0  0  0  0  0  0  0
   -2.3655    0.7009   -1.0181 N   0  0  0  0  0  0  0  0  0  0  0  0
   -0.9789    0.4590   -1.0610 N   0  0  0  0  0  0  0  0  0  0  0  0
   -0.3257    0.1206    0.1117 C   0  0  0  0  0  0  0  0  0  0  0  0
   -0.8460   -0.0938    1.1988 O   0  0  0  0  0  0  0  0  0  0  0  0
    1.1332    0.0179   -0.1630 C   0  0  0  0  0  0  0  0  0  0  0  0
    2.0093   -0.2927    0.8017 C   0  0  0  0  0  0  0  0  0  0  0  0
    3.4569   -0.4181    0.6206 C   0  0  0  0  0  0  0  0  0  0  0  0
    4.2633    0.7204    0.5107 C   0  0  0  0  0  0  0  0  0  0  0  0
    5.6446    0.5897    0.3416 C   0  0  0  0  0  0  0  0  0  0  0  0
    6.2301   -0.6808    0.2815 C   0  0  0  0  0  0  0  0  0  0  0  0
    7.6996   -0.7701    0.1025 C   0  0  0  0  0  0  0  0  0  0  0  0
    8.4661    0.1713    0.0154 O   0  0  0  0  0  0  0  0  0  0  0  0
    8.1423   -2.0386    0.0422 O   0  0  0  0  0  0  0  0  0  0  0  0
    5.4238   -1.8201    0.3933 C   0  0  0  0  0  0  0  0  0  0  0  0
    4.0421   -1.6878    0.5640 C   0  0  0  0  0  0  0  0  0  0  0  0
    1.4588    0.3283   -1.8291 S   0  0  0  0  0  0  0  0  0  0  0  0
   -0.2376    0.6144   -2.2134 C   0  0  0  0  0  0  0  0  0  0  0  0
   -0.7851    0.9672   -3.7489 S   0  0  0  0  0  0  0  0  0  0  0  0
   -4.7205    2.4300   -1.2257 H   0  0  0  0  0  0  0  0  0  0  0  0
   -4.3434    2.9673    0.4108 H   0  0  0  0  0  0  0  0  0  0  0  0
   -6.1786    0.5493   -1.4118 H   0  0  0  0  0  0  0  0  0  0  0  0
   -7.2275   -1.4632   -0.4448 H   0  0  0  0  0  0  0  0  0  0  0  0
   -6.5691   -2.2562    1.8105 H   0  0  0  0  0  0  0  0  0  0  0  0
   -4.8531   -1.0211    3.1086 H   0  0  0  0  0  0  0  0  0  0  0  0
   -3.7893    0.9924    2.1651 H   0  0  0  0  0  0  0  0  0  0  0  0
   -2.9230   -0.0964   -0.7214 H   0  0  0  0  0  0  0  0  0  0  0  0
    1.6595   -0.4811    1.8156 H   0  0  0  0  0  0  0  0  0  0  0  0
    3.8263    1.7161    0.5556 H   0  0  0  0  0  0  0  0  0  0  0  0
    6.2611    1.4829    0.2564 H   0  0  0  0  0  0  0  0  0  0  0  0
    9.1105   -1.9421   -0.0771 H   0  0  0  0  0  0  0  0  0  0  0  0
    5.8600   -2.8152    0.3488 H   0  0  0  0  0  0  0  0  0  0  0  0
    3.4302   -2.5835    0.6480 H   0  0  0  0  0  0  0  0  0  0  0  0
  1  2  2  0
  2  3  1  0
  3  4  1  0
  4  5  2  0
  5  6  1  0
  6  7  2  0
  7  8  1  0
  8  9  2  0
  2 10  1  0
 10 11  1  0
 11 12  1  0
 12 13  2  0
 12 14  1  0
 14 15  2  3
 15 16  1  0
 16 17  2  0
 17 18  1  0
 18 19  2  0
 19 20  1  0
 20 21  2  0
 20 22  1  0
 19 23  1  0
 23 24  2  0
 14 25  1  0
 25 26  1  0
 26 27  2  0
  9  4  1  0
 26 11  1  0
 24 16  1  0
  3 28  1  0
  3 29  1  0
  5 30  1  0
  6 31  1  0
  7 32  1  0
  8 33  1  0
  9 34  1  0
 10 35  1  0
 15 36  1  0
 17 37  1  0
 18 38  1  0
 22 39  1  0
 23 40  1  0
 24 41  1  0
M  END
$$$$
