
     RDKit          3D

 49 51  0  0  0  0  0  0  0  0999 V2000
   -0.6621    3.8723    2.0014 N   0  0  0  0  0  0  0  0  0  0  0  0
   -0.0938    3.0336    1.1163 C   0  0  0  0  0  0  0  0  0  0  0  0
    0.1807    3.3727   -0.1057 N   0  0  0  0  0  0  0  0  0  0  0  0
    0.7871    2.1467   -0.7004 C   0  0  0  0  0  0  0  0  0  0  0  0
    0.8358    1.0722    0.4095 C   0  0  0  0  0  0  0  0  0  0  0  0
    2.2645    0.6376    0.7636 C   0  0  0  0  0  0  0  0  0  0  0  0
    2.8668   -0.2780   -0.2768 C   0  0  0  0  0  0  0  0  0  0  0  0
    2.4294   -1.6061   -0.3893 C   0  0  0  0  0  0  0  0  0  0  0  0
    2.9727   -2.4484   -1.3596 C   0  0  0  0  0  0  0  0  0  0  0  0
    3.9539   -1.9680   -2.2172 C   0  0  0  0  0  0  0  0  0  0  0  0
    4.4578   -2.8250   -3.1501 O   0  0  0  0  0  0  0  0  0  0  0  0
    4.4045   -0.6563   -2.1205 C   0  0  0  0  0  0  0  0  0  0  0  0
    3.8603    0.1877   -1.1496 C   0  0  0  0  0  0  0  0  0  0  0  0
    0.2215    1.7816    1.5326 N   0  0  0  0  0  0  0  0  0  0  0  0
   -0.5108    1.0216    2.5415 C   0  0  0  0  0  0  0  0  0  0  0  0
   -2.0132    0.8677    2.2472 C   0  0  0  0  0  0  0  0  0  0  0  0
   -2.3294    0.0297    1.0298 C   0  0  0  0  0  0  0  0  0  0  0  0
   -2.6997    0.6465   -0.1737 C   0  0  0  0  0  0  0  0  0  0  0  0
   -2.9550   -0.1111   -1.3264 C   0  0  0  0  0  0  0  0  0  0  0  0
   -3.3183    0.5727   -2.6240 C   0  0  0  0  0  0  0  0  0  0  0  0
   -4.0729   -0.2142   -3.4425 F   0  0  0  0  0  0  0  0  0  0  0  0
   -2.2196    0.9191   -3.3493 F   0  0  0  0  0  0  0  0  0  0  0  0
   -4.0352    1.7170   -2.4473 F   0  0  0  0  0  0  0  0  0  0  0  0
   -2.8197   -1.5078   -1.2645 C   0  0  0  0  0  0  0  0  0  0  0  0
   -2.4557   -2.1467   -0.0689 C   0  0  0  0  0  0  0  0  0  0  0  0
   -2.2946   -3.6467    0.0025 C   0  0  0  0  0  0  0  0  0  0  0  0
   -1.0151   -4.0107    0.2966 F   0  0  0  0  0  0  0  0  0  0  0  0
   -2.6099   -4.2867   -1.1564 F   0  0  0  0  0  0  0  0  0  0  0  0
   -3.0737   -4.2092    0.9671 F   0  0  0  0  0  0  0  0  0  0  0  0
   -2.2172   -1.3663    1.0740 C   0  0  0  0  0  0  0  0  0  0  0  0
   -0.6877    4.8113    1.6153 H   0  0  0  0  0  0  0  0  0  0  0  0
   -0.1875    3.8671    2.8945 H   0  0  0  0  0  0  0  0  0  0  0  0
    1.7758    2.3945   -1.0979 H   0  0  0  0  0  0  0  0  0  0  0  0
    0.1619    1.8098   -1.5346 H   0  0  0  0  0  0  0  0  0  0  0  0
    0.2385    0.2079    0.1042 H   0  0  0  0  0  0  0  0  0  0  0  0
    2.2701    0.1048    1.7235 H   0  0  0  0  0  0  0  0  0  0  0  0
    2.9064    1.5149    0.9177 H   0  0  0  0  0  0  0  0  0  0  0  0
    1.6644   -1.9970    0.2781 H   0  0  0  0  0  0  0  0  0  0  0  0
    2.6325   -3.4765   -1.4451 H   0  0  0  0  0  0  0  0  0  0  0  0
    5.1282   -2.3548   -3.6720 H   0  0  0  0  0  0  0  0  0  0  0  0
    5.1715   -0.2745   -2.7865 H   0  0  0  0  0  0  0  0  0  0  0  0
    4.2174    1.2132   -1.0807 H   0  0  0  0  0  0  0  0  0  0  0  0
   -0.0504    0.0335    2.6655 H   0  0  0  0  0  0  0  0  0  0  0  0
   -0.3969    1.5281    3.5076 H   0  0  0  0  0  0  0  0  0  0  0  0
   -2.4925    1.8493    2.1526 H   0  0  0  0  0  0  0  0  0  0  0  0
   -2.4922    0.3956    3.1154 H   0  0  0  0  0  0  0  0  0  0  0  0
   -2.7690    1.7353   -0.2209 H   0  0  0  0  0  0  0  0  0  0  0  0
   -2.9996   -2.1029   -2.1617 H   0  0  0  0  0  0  0  0  0  0  0  0
   -1.9300   -1.8570    2.0041 H   0  0  0  0  0  0  0  0  0  0  0  0
  1  2  1  0
  2  3  2  0
  3  4  1  0
  4  5  1  0
  5  6  1  0
  6  7  1  0
  7  8  2  0
  8  9  1  0
  9 10  2  0
 10 11  1  0
 10 12  1  0
 12 13  2  0
  5 14  1  0
 14 15  1  0
 15 16  1  0
 16 17  1  0
 17 18  2  0
 18 19  1  0
 19 20  1  0
 20 21  1  0
 20 22  1  0
 20 23  1  0
 19 24  2  0
 24 25  1  0
 25 26  1  0
 26 27  1  0
 26 28  1  0
 26 29  1  0
 25 30  2  0
 14  2  1  0
 30 17  1  0
 13  7  1  0
  1 31  1  0
  1 32  1  0
  4 33  1  0
  4 34  1  0
  5 35  1  0
  6 36  1  0
  6 37  1  0
  8 38  1  0
  9 39  1  0
 11 40  1  0
 12 41  1  0
 13 42  1  0
 15 43  1  0
 15 44  1  0
 16 45  1  0
 16 46  1  0
 18 47  1  0
 24 48  1  0
 30 49  1  0
M  END
$$$$
