
     RDKit          3D

 41 44  0  0  0  0  0  0  0  0999 V2000
    2.9882    1.7612   -1.1287 C   0  0  0  0  0  0  0  0  0  0  0  0
    3.3991    0.6032   -0.2638 C   0  0  0  0  0  0  0  0  0  0  0  0
    4.7150    0.1203   -0.3761 C   0  0  0  0  0  0  0  0  0  0  0  0
    5.1663   -0.9383    0.4152 C   0  0  0  0  0  0  0  0  0  0  0  0
    4.3140   -1.5307    1.3413 C   0  0  0  0  0  0  0  0  0  0  0  0
    3.0083   -1.0635    1.4784 C   0  0  0  0  0  0  0  0  0  0  0  0
    2.5470   -0.0042    0.6795 C   0  0  0  0  0  0  0  0  0  0  0  0
    0.8733    0.5562    0.9444 S   0  0  0  0  0  6  0  0  0  0  0  0
    0.2902   -0.1818    2.0477 O   0  0  0  0  0  0  0  0  0  0  0  0
    0.8960    2.0043    0.9814 O   0  0  0  0  0  0  0  0  0  0  0  0
    0.0698    0.1305   -0.4688 N   0  0  0  0  0  0  0  0  0  0  0  0
   -0.3546   -1.2122   -0.5485 C   0  0  0  0  0  0  0  0  0  0  0  0
    0.6268   -2.1077   -0.7274 N   0  0  0  0  0  0  0  0  0  0  0  0
    0.2845   -3.4013   -0.7790 C   0  0  0  0  0  0  0  0  0  0  0  0
   -0.9403   -3.9223   -0.6688 N   0  0  0  0  0  0  0  0  0  0  0  0
   -1.8851   -2.9862   -0.4755 C   0  0  0  0  0  0  0  0  0  0  0  0
   -3.5196   -3.4324   -0.3002 S   0  0  0  0  0  0  0  0  0  0  0  0
   -4.0050   -1.8042   -0.1141 C   0  0  0  0  0  0  0  0  0  0  0  0
   -2.9367   -0.9313   -0.1851 C   0  0  0  0  0  0  0  0  0  0  0  0
   -3.1487    0.4987   -0.0523 C   0  0  0  0  0  0  0  0  0  0  0  0
   -3.6315    1.2399   -1.1365 C   0  0  0  0  0  0  0  0  0  0  0  0
   -3.7844    2.6224   -1.0225 C   0  0  0  0  0  0  0  0  0  0  0  0
   -3.4532    3.2651    0.1701 C   0  0  0  0  0  0  0  0  0  0  0  0
   -2.9750    2.5278    1.2529 C   0  0  0  0  0  0  0  0  0  0  0  0
   -2.8264    1.1449    1.1454 C   0  0  0  0  0  0  0  0  0  0  0  0
   -1.6862   -1.6160   -0.3990 C   0  0  0  0  0  0  0  0  0  0  0  0
    2.0304    1.5721   -1.6200 H   0  0  0  0  0  0  0  0  0  0  0  0
    3.7161    1.9350   -1.9293 H   0  0  0  0  0  0  0  0  0  0  0  0
    2.9288    2.6778   -0.5345 H   0  0  0  0  0  0  0  0  0  0  0  0
    5.4057    0.5708   -1.0870 H   0  0  0  0  0  0  0  0  0  0  0  0
    6.1873   -1.2968    0.3094 H   0  0  0  0  0  0  0  0  0  0  0  0
    4.6660   -2.3523    1.9598 H   0  0  0  0  0  0  0  0  0  0  0  0
    2.3542   -1.5339    2.2098 H   0  0  0  0  0  0  0  0  0  0  0  0
   -0.5976    0.8522   -0.7308 H   0  0  0  0  0  0  0  0  0  0  0  0
    1.0966   -4.1067   -0.9276 H   0  0  0  0  0  0  0  0  0  0  0  0
   -5.0500   -1.5689    0.0426 H   0  0  0  0  0  0  0  0  0  0  0  0
   -3.8855    0.7513   -2.0746 H   0  0  0  0  0  0  0  0  0  0  0  0
   -4.1589    3.2004   -1.8638 H   0  0  0  0  0  0  0  0  0  0  0  0
   -3.5668    4.3431    0.2575 H   0  0  0  0  0  0  0  0  0  0  0  0
   -2.7112    3.0304    2.1807 H   0  0  0  0  0  0  0  0  0  0  0  0
   -2.4469    0.5832    1.9977 H   0  0  0  0  0  0  0  0  0  0  0  0
  1  2  1  0
  2  3  2  0
  3  4  1  0
  4  5  2  0
  5  6  1  0
  6  7  2  0
  7  8  1  0
  8  9  2  0
  8 10  2  0
  8 11  1  0
 11 12  1  0
 12 13  2  0
 13 14  1  0
 14 15  2  0
 15 16  1  0
 16 17  1  0
 17 18  1  0
 18 19  2  0
 19 20  1  0
 20 21  2  0
 21 22  1  0
 22 23  2  0
 23 24  1  0
 24 25  2  0
 19 26  1  0
  7  2  1  0
 26 12  1  0
 26 16  2  0
 25 20  1  0
  1 27  1  0
  1 28  1  0
  1 29  1  0
  3 30  1  0
  4 31  1  0
  5 32  1  0
  6 33  1  0
 11 34  1  0
 14 35  1  0
 18 36  1  0
 21 37  1  0
 22 38  1  0
 23 39  1  0
 24 40  1  0
 25 41  1  0
M  END
$$$$
