
     RDKit          3D

 46 48  0  0  0  0  0  0  0  0999 V2000
   -2.3275    1.4669    2.3247 O   0  0  0  0  0  0  0  0  0  0  0  0
   -1.6162    0.7804    1.6009 C   0  0  0  0  0  0  0  0  0  0  0  0
   -2.0357   -0.3953    1.0187 N   0  0  0  0  0  0  0  0  0  0  0  0
   -3.3859   -0.9021    1.2027 C   0  0  0  0  0  0  0  0  0  0  0  0
   -4.3664   -0.3971    0.1408 C   0  0  0  0  0  0  0  0  0  0  0  0
   -4.8015    1.0500    0.3102 C   0  0  0  0  0  0  0  0  0  0  0  0
   -6.1330    1.0495   -0.3978 C   0  0  0  0  0  0  0  0  0  0  0  0
   -6.6951   -0.2976    0.0009 C   0  0  0  0  0  0  0  0  0  0  0  0
   -5.5766   -1.1826    0.1733 O   0  0  0  0  0  0  0  0  0  0  0  0
   -0.2105    1.1997    1.3376 C   0  0  0  0  0  0  0  0  0  0  0  0
    0.4163    2.0330    2.2704 C   0  0  0  0  0  0  0  0  0  0  0  0
    1.7269    2.4713    2.0608 C   0  0  0  0  0  0  0  0  0  0  0  0
    2.4314    2.0883    0.9130 C   0  0  0  0  0  0  0  0  0  0  0  0
    4.2006    2.7567    0.7572 Br  0  0  0  0  0  0  0  0  0  0  0  0
    1.8067    1.2579   -0.0239 C   0  0  0  0  0  0  0  0  0  0  0  0
    2.6147    0.7351   -1.5150 S   0  0  0  0  0  6  0  0  0  0  0  0
    3.0329    1.9203   -2.2286 O   0  0  0  0  0  0  0  0  0  0  0  0
    1.7638   -0.2455   -2.1603 O   0  0  0  0  0  0  0  0  0  0  0  0
    3.9880   -0.1093   -0.9706 N   0  0  0  0  0  0  0  0  0  0  0  0
    3.7251   -1.3057   -0.1077 C   0  0  0  0  0  0  0  0  0  0  0  0
    4.9616   -2.2089   -0.0551 C   0  0  0  0  0  0  0  0  0  0  0  0
    5.3071   -2.7518   -1.3364 O   0  0  0  0  0  0  0  0  0  0  0  0
    4.9744   -1.8836   -2.4303 C   0  0  0  0  0  0  0  0  0  0  0  0
    4.9926   -0.4010   -2.0493 C   0  0  0  0  0  0  0  0  0  0  0  0
    0.4834    0.8226    0.1834 C   0  0  0  0  0  0  0  0  0  0  0  0
   -1.3939   -0.9766    0.4987 H   0  0  0  0  0  0  0  0  0  0  0  0
   -3.7437   -0.6550    2.2092 H   0  0  0  0  0  0  0  0  0  0  0  0
   -3.3224   -1.9954    1.1550 H   0  0  0  0  0  0  0  0  0  0  0  0
   -3.9314   -0.5395   -0.8571 H   0  0  0  0  0  0  0  0  0  0  0  0
   -4.9526    1.2937    1.3685 H   0  0  0  0  0  0  0  0  0  0  0  0
   -4.0884    1.7632   -0.1119 H   0  0  0  0  0  0  0  0  0  0  0  0
   -5.9765    1.0845   -1.4827 H   0  0  0  0  0  0  0  0  0  0  0  0
   -6.7822    1.8835   -0.1176 H   0  0  0  0  0  0  0  0  0  0  0  0
   -7.2222   -0.2401    0.9590 H   0  0  0  0  0  0  0  0  0  0  0  0
   -7.3771   -0.7077   -0.7493 H   0  0  0  0  0  0  0  0  0  0  0  0
   -0.1176    2.3496    3.1658 H   0  0  0  0  0  0  0  0  0  0  0  0
    2.1865    3.1221    2.8039 H   0  0  0  0  0  0  0  0  0  0  0  0
    2.8796   -1.8785   -0.5041 H   0  0  0  0  0  0  0  0  0  0  0  0
    3.4819   -0.9662    0.9042 H   0  0  0  0  0  0  0  0  0  0  0  0
    4.7857   -3.0523    0.6208 H   0  0  0  0  0  0  0  0  0  0  0  0
    5.8304   -1.6588    0.3251 H   0  0  0  0  0  0  0  0  0  0  0  0
    3.9860   -2.1776   -2.8032 H   0  0  0  0  0  0  0  0  0  0  0  0
    5.6958   -2.0775   -3.2306 H   0  0  0  0  0  0  0  0  0  0  0  0
    4.8165    0.2116   -2.9389 H   0  0  0  0  0  0  0  0  0  0  0  0
    5.9774   -0.1204   -1.6560 H   0  0  0  0  0  0  0  0  0  0  0  0
   -0.0085    0.2229   -0.5784 H   0  0  0  0  0  0  0  0  0  0  0  0
  1  2  2  0
  2  3  1  0
  3  4  1  0
  4  5  1  0
  5  6  1  0
  6  7  1  0
  7  8  1  0
  8  9  1  0
  2 10  1  0
 10 11  2  0
 11 12  1  0
 12 13  2  0
 13 14  1  0
 13 15  1  0
 15 16  1  0
 16 17  2  0
 16 18  2  0
 16 19  1  0
 19 20  1  0
 20 21  1  0
 21 22  1  0
 22 23  1  0
 23 24  1  0
 15 25  2  0
  9  5  1  0
 25 10  1  0
 24 19  1  0
  3 26  1  0
  4 27  1  0
  4 28  1  0
  5 29  1  0
  6 30  1  0
  6 31  1  0
  7 32  1  0
  7 33  1  0
  8 34  1  0
  8 35  1  0
 11 36  1  0
 12 37  1  0
 20 38  1  0
 20 39  1  0
 21 40  1  0
 21 41  1  0
 23 42  1  0
 23 43  1  0
 24 44  1  0
 24 45  1  0
 25 46  1  0
M  END
$$$$
