
     RDKit          3D

 56 59  0  0  0  0  0  0  0  0999 V2000
   -1.9800    1.0819    2.1541 O   0  0  0  0  0  0  0  0  0  0  0  0
   -2.1872    1.0951    0.9392 C   0  0  0  0  0  0  0  0  0  0  0  0
   -1.2136    1.7866   -0.0424 C   0  0  0  0  0  0  0  0  0  0  0  0
    0.1209    1.1631   -0.1360 N   0  0  0  0  0  0  0  0  0  0  0  0
    0.0843   -0.2286   -0.6173 C   0  0  0  0  0  0  0  0  0  0  0  0
    1.5097   -0.8061   -0.8008 C   0  0  0  0  0  0  0  0  0  0  0  0
    2.3014   -0.7163    0.4386 N   0  0  0  0  0  0  0  0  0  0  0  0
    3.6343   -1.3190    0.3240 C   0  0  0  0  0  0  0  0  0  0  0  0
    4.6069   -0.7314   -0.7166 C   0  0  0  0  0  0  0  0  0  0  0  0
    5.8547   -1.4349   -0.6910 O   0  0  0  0  0  0  0  0  0  0  0  0
    6.7921   -0.9099    0.2605 C   0  0  0  0  0  0  0  0  0  0  0  0
    7.6399    0.1737   -0.4038 C   0  0  0  0  0  0  0  0  0  0  0  0
    8.3164   -0.3702   -1.5347 O   0  0  0  0  0  0  0  0  0  0  0  0
    2.3292    0.6763    0.9203 C   0  0  0  0  0  0  0  0  0  0  0  0
    0.9015    1.2446    1.1109 C   0  0  0  0  0  0  0  0  0  0  0  0
   -3.2859    0.4798    0.3107 N   0  0  0  0  0  0  0  0  0  0  0  0
   -3.5804   -0.9150    0.5458 C   0  0  0  0  0  0  0  0  0  0  0  0
   -2.9018   -1.6305    1.5568 C   0  0  0  0  0  0  0  0  0  0  0  0
   -3.1486   -2.9845    1.8096 C   0  0  0  0  0  0  0  0  0  0  0  0
   -4.0746   -3.6732    1.0440 C   0  0  0  0  0  0  0  0  0  0  0  0
   -4.7398   -3.0048    0.0228 C   0  0  0  0  0  0  0  0  0  0  0  0
   -4.4968   -1.6414   -0.2336 C   0  0  0  0  0  0  0  0  0  0  0  0
   -5.3284   -0.9680   -1.6480 S   0  0  0  0  0  0  0  0  0  0  0  0
   -5.1733    0.7594   -1.3169 C   0  0  0  0  0  0  0  0  0  0  0  0
   -6.0542    1.6073   -2.0156 C   0  0  0  0  0  0  0  0  0  0  0  0
   -6.0257    2.9854   -1.8263 C   0  0  0  0  0  0  0  0  0  0  0  0
   -5.1125    3.5223   -0.9328 C   0  0  0  0  0  0  0  0  0  0  0  0
   -5.0748    5.2203   -0.6652 Cl  0  0  0  0  0  0  0  0  0  0  0  0
   -4.2295    2.6917   -0.2395 C   0  0  0  0  0  0  0  0  0  0  0  0
   -4.2237    1.2913   -0.4313 C   0  0  0  0  0  0  0  0  0  0  0  0
   -1.6379    1.8132   -1.0520 H   0  0  0  0  0  0  0  0  0  0  0  0
   -1.1126    2.8334    0.2695 H   0  0  0  0  0  0  0  0  0  0  0  0
   -0.4318   -0.2750   -1.5843 H   0  0  0  0  0  0  0  0  0  0  0  0
   -0.4632   -0.8721    0.0810 H   0  0  0  0  0  0  0  0  0  0  0  0
    1.4181   -1.8558   -1.1051 H   0  0  0  0  0  0  0  0  0  0  0  0
    2.0001   -0.2657   -1.6204 H   0  0  0  0  0  0  0  0  0  0  0  0
    3.5182   -2.3912    0.1151 H   0  0  0  0  0  0  0  0  0  0  0  0
    4.1091   -1.2988    1.3137 H   0  0  0  0  0  0  0  0  0  0  0  0
    4.7699    0.3408   -0.5693 H   0  0  0  0  0  0  0  0  0  0  0  0
    4.1994   -0.8686   -1.7232 H   0  0  0  0  0  0  0  0  0  0  0  0
    7.4366   -1.7461    0.5500 H   0  0  0  0  0  0  0  0  0  0  0  0
    6.2901   -0.5360    1.1585 H   0  0  0  0  0  0  0  0  0  0  0  0
    8.3878    0.5654    0.2915 H   0  0  0  0  0  0  0  0  0  0  0  0
    7.0172    1.0005   -0.7582 H   0  0  0  0  0  0  0  0  0  0  0  0
    7.6695   -0.9593   -1.9706 H   0  0  0  0  0  0  0  0  0  0  0  0
    2.8741    1.3241    0.2207 H   0  0  0  0  0  0  0  0  0  0  0  0
    2.8485    0.7237    1.8856 H   0  0  0  0  0  0  0  0  0  0  0  0
    0.4197    0.6896    1.9244 H   0  0  0  0  0  0  0  0  0  0  0  0
    0.9878    2.2914    1.4259 H   0  0  0  0  0  0  0  0  0  0  0  0
   -2.1662   -1.1570    2.1994 H   0  0  0  0  0  0  0  0  0  0  0  0
   -2.6119   -3.4904    2.6100 H   0  0  0  0  0  0  0  0  0  0  0  0
   -4.2684   -4.7256    1.2313 H   0  0  0  0  0  0  0  0  0  0  0  0
   -5.4471   -3.5618   -0.5896 H   0  0  0  0  0  0  0  0  0  0  0  0
   -6.7794    1.1907   -2.7142 H   0  0  0  0  0  0  0  0  0  0  0  0
   -6.7172    3.6237   -2.3696 H   0  0  0  0  0  0  0  0  0  0  0  0
   -3.5710    3.1621    0.4863 H   0  0  0  0  0  0  0  0  0  0  0  0
  1  2  2  0
  2  3  1  0
  3  4  1  0
  4  5  1  0
  5  6  1  0
  6  7  1  0
  7  8  1  0
  8  9  1  0
  9 10  1  0
 10 11  1  0
 11 12  1  0
 12 13  1  0
  7 14  1  0
 14 15  1  0
  2 16  1  0
 16 17  1  0
 17 18  2  0
 18 19  1  0
 19 20  2  0
 20 21  1  0
 21 22  2  0
 22 23  1  0
 23 24  1  0
 24 25  2  0
 25 26  1  0
 26 27  2  0
 27 28  1  0
 27 29  1  0
 29 30  2  0
 15  4  1  0
 30 16  1  0
 22 17  1  0
 30 24  1  0
  3 31  1  0
  3 32  1  0
  5 33  1  0
  5 34  1  0
  6 35  1  0
  6 36  1  0
  8 37  1  0
  8 38  1  0
  9 39  1  0
  9 40  1  0
 11 41  1  0
 11 42  1  0
 12 43  1  0
 12 44  1  0
 13 45  1  0
 14 46  1  0
 14 47  1  0
 15 48  1  0
 15 49  1  0
 18 50  1  0
 19 51  1  0
 20 52  1  0
 21 53  1  0
 25 54  1  0
 26 55  1  0
 29 56  1  0
M  END
$$$$
