
     RDKit          3D

 56 59  0  0  0  0  0  0  0  0999 V2000
   -1.0534   -1.7782   -1.3557 C   0  0  0  0  0  0  0  0  0  0  0  0
   -1.5349   -0.7542   -0.3222 C   0  0  0  0  0  0  0  0  0  0  0  0
   -2.8902   -0.1438   -0.8025 C   0  0  0  0  0  0  0  0  0  0  0  0
   -2.9139    0.8771   -1.4952 O   0  0  0  0  0  0  0  0  0  0  0  0
   -4.0367   -0.8552   -0.4585 N   0  0  0  0  0  0  0  0  0  0  0  0
   -4.1107   -2.0138    0.4502 C   0  0  0  0  0  0  0  0  0  0  0  0
   -5.5641   -2.4990    0.4801 C   0  0  0  0  0  0  0  0  0  0  0  0
   -6.2590   -1.4420   -0.3107 C   0  0  0  0  0  0  0  0  0  0  0  0
   -7.6229   -1.3367   -0.5453 C   0  0  0  0  0  0  0  0  0  0  0  0
   -8.0800   -0.2823   -1.3340 C   0  0  0  0  0  0  0  0  0  0  0  0
   -7.1755    0.6433   -1.8712 C   0  0  0  0  0  0  0  0  0  0  0  0
   -5.8023    0.5272   -1.6263 C   0  0  0  0  0  0  0  0  0  0  0  0
   -5.3531   -0.5227   -0.8441 C   0  0  0  0  0  0  0  0  0  0  0  0
   -0.5568    0.3123    0.0164 N   0  0  0  0  0  0  0  0  0  0  0  0
    0.4547   -0.1395    0.9880 C   0  0  0  0  0  0  0  0  0  0  0  0
    1.7023    0.7614    1.0256 C   0  0  0  0  0  0  0  0  0  0  0  0
    2.4217    0.7550   -0.2868 N   0  0  0  0  0  0  0  0  0  0  0  0
    3.7784   -0.2733   -0.3867 S   0  0  0  0  0  6  0  0  0  0  0  0
    4.3271   -0.1726   -1.7212 O   0  0  0  0  0  0  0  0  0  0  0  0
    3.3909   -1.5523    0.1749 O   0  0  0  0  0  0  0  0  0  0  0  0
    4.9419    0.4976    0.7116 C   0  0  0  0  0  0  0  0  0  0  0  0
    5.4060   -0.1855    1.8364 C   0  0  0  0  0  0  0  0  0  0  0  0
    6.3488    0.4227    2.6682 C   0  0  0  0  0  0  0  0  0  0  0  0
    6.8329    1.7097    2.3806 C   0  0  0  0  0  0  0  0  0  0  0  0
    7.8747    2.3379    3.2768 C   0  0  0  0  0  0  0  0  0  0  0  0
    8.1108    3.6523    3.0039 F   0  0  0  0  0  0  0  0  0  0  0  0
    9.0801    1.7131    3.1834 F   0  0  0  0  0  0  0  0  0  0  0  0
    7.5278    2.2878    4.5921 F   0  0  0  0  0  0  0  0  0  0  0  0
    6.3526    2.3823    1.2434 C   0  0  0  0  0  0  0  0  0  0  0  0
    5.4094    1.7795    0.4088 C   0  0  0  0  0  0  0  0  0  0  0  0
    1.4952    0.6040   -1.4578 C   0  0  0  0  0  0  0  0  0  0  0  0
    0.0490    1.0202   -1.1287 C   0  0  0  0  0  0  0  0  0  0  0  0
   -1.7945   -2.5718   -1.4968 H   0  0  0  0  0  0  0  0  0  0  0  0
   -0.8971   -1.3246   -2.3402 H   0  0  0  0  0  0  0  0  0  0  0  0
   -0.1193   -2.2558   -1.0433 H   0  0  0  0  0  0  0  0  0  0  0  0
   -1.7350   -1.2840    0.6151 H   0  0  0  0  0  0  0  0  0  0  0  0
   -3.7884   -1.6865    1.4471 H   0  0  0  0  0  0  0  0  0  0  0  0
   -3.4339   -2.8061    0.1151 H   0  0  0  0  0  0  0  0  0  0  0  0
   -5.9441   -2.5585    1.5038 H   0  0  0  0  0  0  0  0  0  0  0  0
   -5.6615   -3.4755   -0.0057 H   0  0  0  0  0  0  0  0  0  0  0  0
   -8.3225   -2.0535   -0.1320 H   0  0  0  0  0  0  0  0  0  0  0  0
   -9.1441   -0.1770   -1.5371 H   0  0  0  0  0  0  0  0  0  0  0  0
   -7.5414    1.4621   -2.4873 H   0  0  0  0  0  0  0  0  0  0  0  0
   -5.1238    1.2574   -2.0535 H   0  0  0  0  0  0  0  0  0  0  0  0
    0.7741   -1.1653    0.7716 H   0  0  0  0  0  0  0  0  0  0  0  0
   -0.0019   -0.1480    1.9838 H   0  0  0  0  0  0  0  0  0  0  0  0
    2.3618    0.4382    1.8360 H   0  0  0  0  0  0  0  0  0  0  0  0
    1.4238    1.7968    1.2562 H   0  0  0  0  0  0  0  0  0  0  0  0
    5.0484   -1.1854    2.0677 H   0  0  0  0  0  0  0  0  0  0  0  0
    6.7151   -0.1132    3.5442 H   0  0  0  0  0  0  0  0  0  0  0  0
    6.7181    3.3803    0.9998 H   0  0  0  0  0  0  0  0  0  0  0  0
    5.0477    2.3036   -0.4751 H   0  0  0  0  0  0  0  0  0  0  0  0
    1.4963   -0.4328   -1.8104 H   0  0  0  0  0  0  0  0  0  0  0  0
    1.8736    1.2367   -2.2681 H   0  0  0  0  0  0  0  0  0  0  0  0
   -0.5535    0.9414   -2.0402 H   0  0  0  0  0  0  0  0  0  0  0  0
    0.0515    2.0891   -0.8763 H   0  0  0  0  0  0  0  0  0  0  0  0
  1  2  1  0
  2  3  1  0
  3  4  2  0
  3  5  1  0
  5  6  1  0
  6  7  1  0
  7  8  1  0
  8  9  2  0
  9 10  1  0
 10 11  2  0
 11 12  1  0
 12 13  2  0
  2 14  1  0
 14 15  1  0
 15 16  1  0
 16 17  1  0
 17 18  1  0
 18 19  2  0
 18 20  2  0
 18 21  1  0
 21 22  2  0
 22 23  1  0
 23 24  2  0
 24 25  1  0
 25 26  1  0
 25 27  1  0
 25 28  1  0
 24 29  1  0
 29 30  2  0
 17 31  1  0
 31 32  1  0
 13  5  1  0
 32 14  1  0
 13  8  1  0
 30 21  1  0
  1 33  1  0
  1 34  1  0
  1 35  1  0
  2 36  1  0
  6 37  1  0
  6 38  1  0
  7 39  1  0
  7 40  1  0
  9 41  1  0
 10 42  1  0
 11 43  1  0
 12 44  1  0
 15 45  1  0
 15 46  1  0
 16 47  1  0
 16 48  1  0
 22 49  1  0
 23 50  1  0
 29 51  1  0
 30 52  1  0
 31 53  1  0
 31 54  1  0
 32 55  1  0
 32 56  1  0
M  END
$$$$
