
     RDKit          3D

 47 48  0  0  0  0  0  0  0  0999 V2000
   -4.0603    4.7335    1.0800 C   0  0  0  0  0  0  0  0  0  0  0  0
   -3.8615    3.7136   -0.4009 S   0  0  0  0  0  0  0  0  0  0  0  0
   -2.2589    2.9470    0.0126 C   0  0  0  0  0  0  0  0  0  0  0  0
   -1.8111    2.0412   -1.1362 C   0  0  0  0  0  0  0  0  0  0  0  0
   -0.4870    1.3099   -0.8817 C   0  0  0  0  0  0  0  0  0  0  0  0
    0.6056    2.2917   -0.6670 N   0  0  0  0  0  0  0  0  0  0  0  0
    2.1075    1.9716   -1.3560 S   0  0  0  0  0  6  0  0  0  0  0  0
    3.0282    2.9534   -0.8299 O   0  0  0  0  0  0  0  0  0  0  0  0
    1.8998    1.8019   -2.7778 O   0  0  0  0  0  0  0  0  0  0  0  0
    2.5539    0.3936   -0.6753 C   0  0  0  0  0  0  0  0  0  0  0  0
    2.9159    0.3078    0.6706 C   0  0  0  0  0  0  0  0  0  0  0  0
    3.2417   -0.9348    1.2160 C   0  0  0  0  0  0  0  0  0  0  0  0
    3.2323   -2.0868    0.4176 C   0  0  0  0  0  0  0  0  0  0  0  0
    3.5483   -3.4254    1.0180 C   0  0  0  0  0  0  0  0  0  0  0  0
    2.8776   -1.9832   -0.9343 C   0  0  0  0  0  0  0  0  0  0  0  0
    2.5478   -0.7442   -1.4859 C   0  0  0  0  0  0  0  0  0  0  0  0
   -0.5648    0.4155    0.3664 C   0  0  0  0  0  0  0  0  0  0  0  0
   -0.2371    0.8708    1.4681 O   0  0  0  0  0  0  0  0  0  0  0  0
   -1.0047   -0.8769    0.2141 N   0  0  0  0  0  0  0  0  0  0  0  0
   -1.3681   -1.5512   -1.0233 C   0  0  0  0  0  0  0  0  0  0  0  0
   -1.9318   -2.8905   -0.5716 C   0  0  0  0  0  0  0  0  0  0  0  0
   -1.1467   -3.1745    0.7022 C   0  0  0  0  0  0  0  0  0  0  0  0
   -1.0233   -1.7978    1.3386 C   0  0  0  0  0  0  0  0  0  0  0  0
   -3.2409    5.4525    1.1599 H   0  0  0  0  0  0  0  0  0  0  0  0
   -5.0017    5.2852    1.0136 H   0  0  0  0  0  0  0  0  0  0  0  0
   -4.0879    4.1050    1.9739 H   0  0  0  0  0  0  0  0  0  0  0  0
   -2.3887    2.3743    0.9351 H   0  0  0  0  0  0  0  0  0  0  0  0
   -1.5265    3.7407    0.1878 H   0  0  0  0  0  0  0  0  0  0  0  0
   -1.7042    2.6409   -2.0501 H   0  0  0  0  0  0  0  0  0  0  0  0
   -2.5928    1.2968   -1.3324 H   0  0  0  0  0  0  0  0  0  0  0  0
   -0.2632    0.7042   -1.7648 H   0  0  0  0  0  0  0  0  0  0  0  0
    0.6997    2.5950    0.3077 H   0  0  0  0  0  0  0  0  0  0  0  0
    2.9306    1.1940    1.3011 H   0  0  0  0  0  0  0  0  0  0  0  0
    3.5039   -0.9985    2.2704 H   0  0  0  0  0  0  0  0  0  0  0  0
    3.9956   -4.0920    0.2733 H   0  0  0  0  0  0  0  0  0  0  0  0
    4.2670   -3.3260    1.8381 H   0  0  0  0  0  0  0  0  0  0  0  0
    2.6335   -3.8869    1.4023 H   0  0  0  0  0  0  0  0  0  0  0  0
    2.8630   -2.8687   -1.5667 H   0  0  0  0  0  0  0  0  0  0  0  0
    2.2869   -0.6779   -2.5398 H   0  0  0  0  0  0  0  0  0  0  0  0
   -0.4584   -1.6847   -1.6177 H   0  0  0  0  0  0  0  0  0  0  0  0
   -2.0884   -0.9640   -1.5974 H   0  0  0  0  0  0  0  0  0  0  0  0
   -2.9979   -2.7895   -0.3349 H   0  0  0  0  0  0  0  0  0  0  0  0
   -1.8196   -3.6720   -1.3278 H   0  0  0  0  0  0  0  0  0  0  0  0
   -1.6379   -3.8995    1.3567 H   0  0  0  0  0  0  0  0  0  0  0  0
   -0.1524   -3.5599    0.4458 H   0  0  0  0  0  0  0  0  0  0  0  0
   -1.9004   -1.5592    1.9501 H   0  0  0  0  0  0  0  0  0  0  0  0
   -0.1227   -1.6957    1.9516 H   0  0  0  0  0  0  0  0  0  0  0  0
  1  2  1  0
  2  3  1  0
  3  4  1  0
  4  5  1  0
  5  6  1  0
  6  7  1  0
  7  8  2  0
  7  9  2  0
  7 10  1  0
 10 11  2  0
 11 12  1  0
 12 13  2  0
 13 14  1  0
 13 15  1  0
 15 16  2  0
  5 17  1  0
 17 18  2  0
 17 19  1  0
 19 20  1  0
 20 21  1  0
 21 22  1  0
 22 23  1  0
 16 10  1  0
 23 19  1  0
  1 24  1  0
  1 25  1  0
  1 26  1  0
  3 27  1  0
  3 28  1  0
  4 29  1  0
  4 30  1  0
  5 31  1  0
  6 32  1  0
 11 33  1  0
 12 34  1  0
 14 35  1  0
 14 36  1  0
 14 37  1  0
 15 38  1  0
 16 39  1  0
 20 40  1  0
 20 41  1  0
 21 42  1  0
 21 43  1  0
 22 44  1  0
 22 45  1  0
 23 46  1  0
 23 47  1  0
M  END
$$$$
