
     RDKit          3D

 61 64  0  0  0  0  0  0  0  0999 V2000
   -6.6165   -3.0868   -3.7389 C   0  0  0  0  0  0  0  0  0  0  0  0
   -5.9219   -2.0512   -3.0416 O   0  0  0  0  0  0  0  0  0  0  0  0
   -4.5667   -2.1348   -3.1338 C   0  0  0  0  0  0  0  0  0  0  0  0
   -3.9454   -3.0070   -3.7287 O   0  0  0  0  0  0  0  0  0  0  0  0
   -3.9138   -1.0229   -2.3606 C   0  0  0  0  0  0  0  0  0  0  0  0
   -3.6578   -1.4734   -0.9298 C   0  0  0  0  0  0  0  0  0  0  0  0
   -2.8908   -0.4339   -0.1578 C   0  0  0  0  0  0  0  0  0  0  0  0
   -1.5595   -0.3475    0.0701 C   0  0  0  0  0  0  0  0  0  0  0  0
   -0.6474   -1.3349   -0.5383 C   0  0  0  0  0  0  0  0  0  0  0  0
    0.6968   -1.2321   -0.4643 C   0  0  0  0  0  0  0  0  0  0  0  0
    1.5842   -2.2744   -1.0846 C   0  0  0  0  0  0  0  0  0  0  0  0
    3.0788   -2.0607   -0.8742 C   0  0  0  0  0  0  0  0  0  0  0  0
    3.8403   -3.0327   -0.8903 O   0  0  0  0  0  0  0  0  0  0  0  0
    3.5800   -0.6157   -0.7519 C   0  0  0  0  0  0  0  0  0  0  0  0
    3.4301    0.0493   -2.1284 C   0  0  0  0  0  0  0  0  0  0  0  0
    4.9646   -0.7281   -0.3613 O   0  0  0  0  0  0  0  0  0  0  0  0
    5.7399    0.3892   -0.2856 C   0  0  0  0  0  0  0  0  0  0  0  0
    5.3763    1.5043   -0.6366 O   0  0  0  0  0  0  0  0  0  0  0  0
    7.0480    0.0301    0.2314 C   0  0  0  0  0  0  0  0  0  0  0  0
    7.5293   -1.2060    0.6302 C   0  0  0  0  0  0  0  0  0  0  0  0
    8.8809   -1.1503    1.0797 C   0  0  0  0  0  0  0  0  0  0  0  0
    9.3923    0.1251    1.0104 C   0  0  0  0  0  0  0  0  0  0  0  0
    8.2474    1.2436    0.4091 S   0  0  0  0  0  0  0  0  0  0  0  0
    2.7510    0.0888    0.3272 C   0  0  0  0  0  0  0  0  0  0  0  0
    3.2435    0.7558    1.2347 O   0  0  0  0  0  0  0  0  0  0  0  0
    1.2763   -0.1063    0.2451 C   0  0  0  0  0  0  0  0  0  0  0  0
    0.4620    0.7748    0.8478 C   0  0  0  0  0  0  0  0  0  0  0  0
   -0.9346    0.6890    0.8179 N   0  0  0  0  0  0  0  0  0  0  0  0
   -1.6773    1.6117    1.6202 C   0  0  0  0  0  0  0  0  0  0  0  0
   -2.5106    1.1591    2.6559 C   0  0  0  0  0  0  0  0  0  0  0  0
   -3.2234    2.0606    3.4562 C   0  0  0  0  0  0  0  0  0  0  0  0
   -3.1111    3.4330    3.2348 C   0  0  0  0  0  0  0  0  0  0  0  0
   -3.7478    4.4166    3.9390 O   0  0  0  0  0  0  0  0  0  0  0  0
   -4.5806    4.0032    5.0139 C   0  0  0  0  0  0  0  0  0  0  0  0
   -2.2794    3.8923    2.2111 C   0  0  0  0  0  0  0  0  0  0  0  0
   -1.5645    2.9936    1.4140 C   0  0  0  0  0  0  0  0  0  0  0  0
   -7.6892   -2.9586   -3.5577 H   0  0  0  0  0  0  0  0  0  0  0  0
   -6.3180   -4.0725   -3.3632 H   0  0  0  0  0  0  0  0  0  0  0  0
   -6.4324   -3.0081   -4.8164 H   0  0  0  0  0  0  0  0  0  0  0  0
   -4.5466   -0.1282   -2.3976 H   0  0  0  0  0  0  0  0  0  0  0  0
   -2.9799   -0.7642   -2.8746 H   0  0  0  0  0  0  0  0  0  0  0  0
   -4.6152   -1.6414   -0.4194 H   0  0  0  0  0  0  0  0  0  0  0  0
   -3.1585   -2.4478   -0.9106 H   0  0  0  0  0  0  0  0  0  0  0  0
   -3.5346    0.3479    0.2413 H   0  0  0  0  0  0  0  0  0  0  0  0
   -1.0748   -2.1746   -1.0765 H   0  0  0  0  0  0  0  0  0  0  0  0
    1.4119   -2.3155   -2.1672 H   0  0  0  0  0  0  0  0  0  0  0  0
    1.3356   -3.2548   -0.6577 H   0  0  0  0  0  0  0  0  0  0  0  0
    2.4657   -0.1650   -2.6006 H   0  0  0  0  0  0  0  0  0  0  0  0
    4.2179   -0.2888   -2.8118 H   0  0  0  0  0  0  0  0  0  0  0  0
    3.4961    1.1403   -2.0638 H   0  0  0  0  0  0  0  0  0  0  0  0
    6.9370   -2.1140    0.6002 H   0  0  0  0  0  0  0  0  0  0  0  0
    9.4473   -2.0030    1.4345 H   0  0  0  0  0  0  0  0  0  0  0  0
   10.3843    0.4580    1.2850 H   0  0  0  0  0  0  0  0  0  0  0  0
    0.8570    1.6113    1.4212 H   0  0  0  0  0  0  0  0  0  0  0  0
   -2.5926    0.0928    2.8555 H   0  0  0  0  0  0  0  0  0  0  0  0
   -3.8493    1.6566    4.2449 H   0  0  0  0  0  0  0  0  0  0  0  0
   -4.9966    4.9026    5.4792 H   0  0  0  0  0  0  0  0  0  0  0  0
   -5.4179    3.3968    4.6529 H   0  0  0  0  0  0  0  0  0  0  0  0
   -4.0056    3.4688    5.7776 H   0  0  0  0  0  0  0  0  0  0  0  0
   -2.1851    4.9611    2.0328 H   0  0  0  0  0  0  0  0  0  0  0  0
   -0.9295    3.3787    0.6197 H   0  0  0  0  0  0  0  0  0  0  0  0
  1  2  1  0
  2  3  1  0
  3  4  2  0
  3  5  1  0
  5  6  1  0
  6  7  1  0
  7  8  2  3
  8  9  1  0
  9 10  2  0
 10 11  1  0
 11 12  1  0
 12 13  2  0
 12 14  1  0
 14 15  1  0
 14 16  1  0
 16 17  1  0
 17 18  2  0
 17 19  1  0
 19 20  2  0
 20 21  1  0
 21 22  2  0
 22 23  1  0
 14 24  1  0
 24 25  2  0
 24 26  1  0
 26 27  2  0
 27 28  1  0
 28 29  1  0
 29 30  2  0
 30 31  1  0
 31 32  2  0
 32 33  1  0
 33 34  1  0
 32 35  1  0
 35 36  2  0
 28  8  1  0
 36 29  1  0
 26 10  1  0
 23 19  1  0
  1 37  1  0
  1 38  1  0
  1 39  1  0
  5 40  1  0
  5 41  1  0
  6 42  1  0
  6 43  1  0
  7 44  1  0
  9 45  1  0
 11 46  1  0
 11 47  1  0
 15 48  1  0
 15 49  1  0
 15 50  1  0
 20 51  1  0
 21 52  1  0
 22 53  1  0
 27 54  1  0
 30 55  1  0
 31 56  1  0
 34 57  1  0
 34 58  1  0
 34 59  1  0
 35 60  1  0
 36 61  1  0
M  END
$$$$
