
     RDKit          3D

 36 38  0  0  0  0  0  0  0  0999 V2000
   -4.6606    2.2667    0.7880 C   0  0  0  0  0  0  0  0  0  0  0  0
   -3.5497    1.4094    0.4345 N   0  0  0  0  0  0  0  0  0  0  0  0
   -2.2411    1.8112    0.3774 C   0  0  0  0  0  0  0  0  0  0  0  0
   -1.4756    0.7214    0.0243 C   0  0  0  0  0  0  0  0  0  0  0  0
   -0.0550    0.7920   -0.1112 C   0  0  0  0  0  0  0  0  0  0  0  0
    0.8005   -0.1981    0.1947 C   0  0  0  0  0  0  0  0  0  0  0  0
    2.2575   -0.1091    0.0477 C   0  0  0  0  0  0  0  0  0  0  0  0
    2.9743    1.0403    0.3766 C   0  0  0  0  0  0  0  0  0  0  0  0
    4.3586    1.0523    0.2432 C   0  0  0  0  0  0  0  0  0  0  0  0
    5.0175   -0.0415   -0.1997 N   0  0  0  0  0  4  0  0  0  0  0  0
    6.4847   -0.0081   -0.3245 C   0  0  0  0  0  0  0  0  0  0  0  0
    4.3469   -1.1750   -0.5026 C   0  0  0  0  0  0  0  0  0  0  0  0
    2.9629   -1.2321   -0.3819 C   0  0  0  0  0  0  0  0  0  0  0  0
   -2.3623   -0.3814   -0.1819 C   0  0  0  0  0  0  0  0  0  0  0  0
   -2.2023   -1.7227   -0.5951 C   0  0  0  0  0  0  0  0  0  0  0  0
   -3.3212   -2.5550   -0.6882 C   0  0  0  0  0  0  0  0  0  0  0  0
   -3.1113   -4.1913   -1.1845 Cl  0  0  0  0  0  0  0  0  0  0  0  0
   -4.5936   -2.0840   -0.3896 C   0  0  0  0  0  0  0  0  0  0  0  0
   -4.7847   -0.7571    0.0046 C   0  0  0  0  0  0  0  0  0  0  0  0
   -3.6569    0.0762    0.0960 C   0  0  0  0  0  0  0  0  0  0  0  0
   -5.1519    1.8488    1.6703 H   0  0  0  0  0  0  0  0  0  0  0  0
   -5.3500    2.3056   -0.0592 H   0  0  0  0  0  0  0  0  0  0  0  0
   -4.2916    3.2710    1.0113 H   0  0  0  0  0  0  0  0  0  0  0  0
   -1.9642    2.8322    0.6074 H   0  0  0  0  0  0  0  0  0  0  0  0
    0.3307    1.7419   -0.4756 H   0  0  0  0  0  0  0  0  0  0  0  0
    0.4209   -1.1428    0.5790 H   0  0  0  0  0  0  0  0  0  0  0  0
    2.4678    1.9279    0.7508 H   0  0  0  0  0  0  0  0  0  0  0  0
    4.9474    1.9300    0.4946 H   0  0  0  0  0  0  0  0  0  0  0  0
    6.7902   -0.6752   -1.1347 H   0  0  0  0  0  0  0  0  0  0  0  0
    6.9018   -0.3374    0.6303 H   0  0  0  0  0  0  0  0  0  0  0  0
    6.8015    1.0118   -0.5574 H   0  0  0  0  0  0  0  0  0  0  0  0
    4.9256   -2.0314   -0.8374 H   0  0  0  0  0  0  0  0  0  0  0  0
    2.4414   -2.1545   -0.6328 H   0  0  0  0  0  0  0  0  0  0  0  0
   -1.2218   -2.1077   -0.8509 H   0  0  0  0  0  0  0  0  0  0  0  0
   -5.4542   -2.7445   -0.4680 H   0  0  0  0  0  0  0  0  0  0  0  0
   -5.7823   -0.3897    0.2264 H   0  0  0  0  0  0  0  0  0  0  0  0
  1  2  1  0
  2  3  1  0
  3  4  2  0
  4  5  1  0
  5  6  2  3
  6  7  1  0
  7  8  2  0
  8  9  1  0
  9 10  2  0
 10 11  1  0
 10 12  1  0
 12 13  2  0
  4 14  1  0
 14 15  2  0
 15 16  1  0
 16 17  1  0
 16 18  2  0
 18 19  1  0
 19 20  2  0
 20  2  1  0
 13  7  1  0
 20 14  1  0
  1 21  1  0
  1 22  1  0
  1 23  1  0
  3 24  1  0
  5 25  1  0
  6 26  1  0
  8 27  1  0
  9 28  1  0
 11 29  1  0
 11 30  1  0
 11 31  1  0
 12 32  1  0
 13 33  1  0
 15 34  1  0
 18 35  1  0
 19 36  1  0
M  CHG  1  10   1
M  END
$$$$
