
     RDKit          3D

 40 41  0  0  0  0  0  0  0  0999 V2000
    6.2487    0.7800    0.5799 C   0  0  0  0  0  0  0  0  0  0  0  0
    5.2180    0.9346    1.6848 C   0  0  0  0  0  0  0  0  0  0  0  0
    4.3956   -0.2272    1.7793 O   0  0  0  0  0  0  0  0  0  0  0  0
    3.2665   -0.3062    1.0141 C   0  0  0  0  0  0  0  0  0  0  0  0
    2.8501    0.6176    0.0529 C   0  0  0  0  0  0  0  0  0  0  0  0
    1.6661    0.4066   -0.6625 C   0  0  0  0  0  0  0  0  0  0  0  0
    0.8998   -0.7329   -0.4095 C   0  0  0  0  0  0  0  0  0  0  0  0
   -0.6052   -1.0189   -1.3089 S   0  0  0  0  0  6  0  0  0  0  0  0
   -0.5827   -2.3977   -1.7482 O   0  0  0  0  0  0  0  0  0  0  0  0
   -0.7834    0.0647   -2.2530 O   0  0  0  0  0  0  0  0  0  0  0  0
   -1.7967   -0.8515   -0.0935 N   0  0  0  0  0  0  0  0  0  0  0  0
   -1.8454    0.4723    0.5898 C   0  0  0  0  0  0  0  0  0  0  0  0
   -3.1796    0.7895    1.2612 C   0  0  0  0  0  0  0  0  0  0  0  0
   -4.3400    1.1104    0.3086 C   0  0  0  0  0  0  0  0  0  0  0  0
   -4.1509    0.7085   -1.1517 C   0  0  0  0  0  0  0  0  0  0  0  0
   -3.9516   -0.7854   -1.3951 C   0  0  0  0  0  0  0  0  0  0  0  0
   -3.0863   -1.5212   -0.3813 C   0  0  0  0  0  0  0  0  0  0  0  0
    1.3115   -1.6708    0.5380 C   0  0  0  0  0  0  0  0  0  0  0  0
    2.4932   -1.4499    1.2468 C   0  0  0  0  0  0  0  0  0  0  0  0
    6.8402   -0.1289    0.7327 H   0  0  0  0  0  0  0  0  0  0  0  0
    5.7739    0.6873   -0.4013 H   0  0  0  0  0  0  0  0  0  0  0  0
    6.9246    1.6396    0.5593 H   0  0  0  0  0  0  0  0  0  0  0  0
    5.7478    1.0160    2.6408 H   0  0  0  0  0  0  0  0  0  0  0  0
    4.6340    1.8563    1.5878 H   0  0  0  0  0  0  0  0  0  0  0  0
    3.4267    1.5075   -0.1756 H   0  0  0  0  0  0  0  0  0  0  0  0
    1.3564    1.1299   -1.4138 H   0  0  0  0  0  0  0  0  0  0  0  0
   -1.0772    0.4538    1.3725 H   0  0  0  0  0  0  0  0  0  0  0  0
   -1.5793    1.2832   -0.0962 H   0  0  0  0  0  0  0  0  0  0  0  0
   -3.4683   -0.0265    1.9346 H   0  0  0  0  0  0  0  0  0  0  0  0
   -3.0375    1.6581    1.9176 H   0  0  0  0  0  0  0  0  0  0  0  0
   -4.5119    2.1944    0.3340 H   0  0  0  0  0  0  0  0  0  0  0  0
   -5.2584    0.6559    0.7004 H   0  0  0  0  0  0  0  0  0  0  0  0
   -3.3079    1.2645   -1.5783 H   0  0  0  0  0  0  0  0  0  0  0  0
   -5.0279    1.0367   -1.7240 H   0  0  0  0  0  0  0  0  0  0  0  0
   -3.5363   -0.9181   -2.4017 H   0  0  0  0  0  0  0  0  0  0  0  0
   -4.9350   -1.2725   -1.4120 H   0  0  0  0  0  0  0  0  0  0  0  0
   -2.8982   -2.5401   -0.7403 H   0  0  0  0  0  0  0  0  0  0  0  0
   -3.6356   -1.6765    0.5535 H   0  0  0  0  0  0  0  0  0  0  0  0
    0.7226   -2.5658    0.7249 H   0  0  0  0  0  0  0  0  0  0  0  0
    2.8199   -2.1773    1.9869 H   0  0  0  0  0  0  0  0  0  0  0  0
  1  2  1  0
  2  3  1  0
  3  4  1  0
  4  5  2  0
  5  6  1  0
  6  7  2  0
  7  8  1  0
  8  9  2  0
  8 10  2  0
  8 11  1  0
 11 12  1  0
 12 13  1  0
 13 14  1  0
 14 15  1  0
 15 16  1  0
 16 17  1  0
  7 18  1  0
 18 19  2  0
 19  4  1  0
 17 11  1  0
  1 20  1  0
  1 21  1  0
  1 22  1  0
  2 23  1  0
  2 24  1  0
  5 25  1  0
  6 26  1  0
 12 27  1  0
 12 28  1  0
 13 29  1  0
 13 30  1  0
 14 31  1  0
 14 32  1  0
 15 33  1  0
 15 34  1  0
 16 35  1  0
 16 36  1  0
 17 37  1  0
 17 38  1  0
 18 39  1  0
 19 40  1  0
M  END
$$$$
