
     RDKit          3D

 40 42  0  0  0  0  0  0  0  0999 V2000
    2.4570    4.7490    2.2680 C   0  0  0  0  0  0  0  0  0  0  0  0
    2.0501    3.4532    1.5882 C   0  0  0  0  0  0  0  0  0  0  0  0
    0.2841    3.1240    1.8946 S   0  0  0  0  0  0  0  0  0  0  0  0
    0.0769    1.5774    1.0210 C   0  0  0  0  0  0  0  0  0  0  0  0
   -1.1573    0.9647    1.0550 C   0  0  0  0  0  0  0  0  0  0  0  0
   -1.2990   -0.2244    0.3690 C   0  0  0  0  0  0  0  0  0  0  0  0
   -2.5056   -0.9147    0.3690 N   0  0  0  0  0  0  0  0  0  0  0  0
   -2.5063   -2.2426   -0.2678 C   0  0  0  0  0  0  0  0  0  0  0  0
   -3.8877   -2.8913   -0.0901 C   0  0  0  0  0  0  0  0  0  0  0  0
   -4.9637   -2.1425   -0.6778 O   0  0  0  0  0  0  0  0  0  0  0  0
   -4.6621   -0.7511   -0.8468 C   0  0  0  0  0  0  0  0  0  0  0  0
   -3.7737   -0.1696    0.2668 C   0  0  0  0  0  0  0  0  0  0  0  0
   -0.2494   -0.7615   -0.2751 N   0  0  0  0  0  0  0  0  0  0  0  0
    0.9223   -0.0995   -0.2621 C   0  0  0  0  0  0  0  0  0  0  0  0
    2.0606   -0.7011   -0.9891 C   0  0  0  0  0  0  0  0  0  0  0  0
    3.3241   -0.0765   -1.0264 C   0  0  0  0  0  0  0  0  0  0  0  0
    4.4034   -0.6441   -1.7143 C   0  0  0  0  0  0  0  0  0  0  0  0
    4.2386   -1.8532   -2.3813 C   0  0  0  0  0  0  0  0  0  0  0  0
    5.5622   -2.5532   -3.2274 Cl  0  0  0  0  0  0  0  0  0  0  0  0
    3.0064   -2.4977   -2.3659 C   0  0  0  0  0  0  0  0  0  0  0  0
    1.9309   -1.9252   -1.6763 C   0  0  0  0  0  0  0  0  0  0  0  0
    1.1265    1.0685    0.3632 N   0  0  0  0  0  0  0  0  0  0  0  0
    2.3134    4.6969    3.3526 H   0  0  0  0  0  0  0  0  0  0  0  0
    3.5182    4.9478    2.0845 H   0  0  0  0  0  0  0  0  0  0  0  0
    1.8893    5.6021    1.8811 H   0  0  0  0  0  0  0  0  0  0  0  0
    2.2282    3.5349    0.5111 H   0  0  0  0  0  0  0  0  0  0  0  0
    2.6525    2.6290    1.9835 H   0  0  0  0  0  0  0  0  0  0  0  0
   -1.9729    1.3928    1.6220 H   0  0  0  0  0  0  0  0  0  0  0  0
   -2.2836   -2.1470   -1.3382 H   0  0  0  0  0  0  0  0  0  0  0  0
   -1.7512   -2.8899    0.1939 H   0  0  0  0  0  0  0  0  0  0  0  0
   -3.8979   -3.8890   -0.5403 H   0  0  0  0  0  0  0  0  0  0  0  0
   -4.1166   -3.0099    0.9755 H   0  0  0  0  0  0  0  0  0  0  0  0
   -5.6141   -0.2119   -0.8856 H   0  0  0  0  0  0  0  0  0  0  0  0
   -4.1800   -0.6280   -1.8240 H   0  0  0  0  0  0  0  0  0  0  0  0
   -3.6200    0.8947    0.0558 H   0  0  0  0  0  0  0  0  0  0  0  0
   -4.2915   -0.2554    1.2290 H   0  0  0  0  0  0  0  0  0  0  0  0
    3.4780    0.8710   -0.5116 H   0  0  0  0  0  0  0  0  0  0  0  0
    5.3636   -0.1354   -1.7223 H   0  0  0  0  0  0  0  0  0  0  0  0
    2.8708   -3.4427   -2.8849 H   0  0  0  0  0  0  0  0  0  0  0  0
    0.9754   -2.4485   -1.6782 H   0  0  0  0  0  0  0  0  0  0  0  0
  1  2  1  0
  2  3  1  0
  3  4  1  0
  4  5  2  0
  5  6  1  0
  6  7  1  0
  7  8  1  0
  8  9  1  0
  9 10  1  0
 10 11  1  0
 11 12  1  0
  6 13  2  0
 13 14  1  0
 14 15  1  0
 15 16  2  0
 16 17  1  0
 17 18  2  0
 18 19  1  0
 18 20  1  0
 20 21  2  0
 14 22  2  0
 22  4  1  0
 12  7  1  0
 21 15  1  0
  1 23  1  0
  1 24  1  0
  1 25  1  0
  2 26  1  0
  2 27  1  0
  5 28  1  0
  8 29  1  0
  8 30  1  0
  9 31  1  0
  9 32  1  0
 11 33  1  0
 11 34  1  0
 12 35  1  0
 12 36  1  0
 16 37  1  0
 17 38  1  0
 20 39  1  0
 21 40  1  0
M  END
$$$$
