
     RDKit          3D

 62 63  0  0  0  0  0  0  0  0999 V2000
   -7.2784    1.6391   -1.6742 C   0  0  0  0  0  0  0  0  0  0  0  0
   -6.8062    0.4590   -0.7937 C   0  0  0  0  0  0  0  0  0  0  0  0
   -7.2832   -0.8413   -1.4776 C   0  0  0  0  0  0  0  0  0  0  0  0
   -7.5102    0.6042    0.5738 C   0  0  0  0  0  0  0  0  0  0  0  0
   -5.2800    0.4054   -0.5902 C   0  0  0  0  0  0  0  0  0  0  0  0
   -4.4046    1.3356   -1.1727 C   0  0  0  0  0  0  0  0  0  0  0  0
   -3.0236    1.2654   -0.9620 C   0  0  0  0  0  0  0  0  0  0  0  0
   -2.4872    0.2494   -0.1748 C   0  0  0  0  0  0  0  0  0  0  0  0
   -1.1448    0.1433    0.0952 O   0  0  0  0  0  0  0  0  0  0  0  0
   -0.2766    0.2911   -1.0396 C   0  0  0  0  0  0  0  0  0  0  0  0
    0.5755    1.5527   -0.8873 C   0  0  0  0  0  0  0  0  0  0  0  0
    1.4551    1.4651    0.2383 O   0  0  0  0  0  0  0  0  0  0  0  0
    2.6784    0.8578    0.0904 C   0  0  0  0  0  0  0  0  0  0  0  0
    3.1445    0.2506   -1.0726 C   0  0  0  0  0  0  0  0  0  0  0  0
    4.4099   -0.3456   -1.0963 C   0  0  0  0  0  0  0  0  0  0  0  0
    5.2487   -0.3503    0.0327 C   0  0  0  0  0  0  0  0  0  0  0  0
    6.6345   -1.0199   -0.0359 C   0  0  0  0  0  0  0  0  0  0  0  0
    7.4643   -0.8884    1.2626 C   0  0  0  0  0  0  0  0  0  0  0  0
    7.4676   -0.3842   -1.1715 C   0  0  0  0  0  0  0  0  0  0  0  0
    6.4613   -2.5281   -0.3168 C   0  0  0  0  0  0  0  0  0  0  0  0
    4.7614    0.2651    1.1996 C   0  0  0  0  0  0  0  0  0  0  0  0
    3.4946    0.8629    1.2390 C   0  0  0  0  0  0  0  0  0  0  0  0
    2.9678    1.4884    2.3913 N   0  0  0  0  0  0  0  0  0  0  0  0
    3.5497    1.6370    3.6246 C   0  0  0  0  0  0  0  0  0  0  0  0
    4.6456    1.2615    4.0131 O   0  0  0  0  0  0  0  0  0  0  0  0
   -3.3353   -0.6810    0.4443 C   0  0  0  0  0  0  0  0  0  0  0  0
   -2.7282   -1.6566    1.2639 N   0  0  0  0  0  0  0  0  0  0  0  0
   -3.3293   -2.6767    1.9576 C   0  0  0  0  0  0  0  0  0  0  0  0
   -4.5122   -2.9794    2.0134 O   0  0  0  0  0  0  0  0  0  0  0  0
   -4.7137   -0.6020    0.2215 C   0  0  0  0  0  0  0  0  0  0  0  0
   -6.8572    1.5835   -2.6852 H   0  0  0  0  0  0  0  0  0  0  0  0
   -6.9960    2.6050   -1.2380 H   0  0  0  0  0  0  0  0  0  0  0  0
   -8.3704    1.6409   -1.7811 H   0  0  0  0  0  0  0  0  0  0  0  0
   -7.0784   -1.7294   -0.8684 H   0  0  0  0  0  0  0  0  0  0  0  0
   -6.7861   -0.9845   -2.4450 H   0  0  0  0  0  0  0  0  0  0  0  0
   -8.3649   -0.8178   -1.6582 H   0  0  0  0  0  0  0  0  0  0  0  0
   -8.5955    0.6992    0.4523 H   0  0  0  0  0  0  0  0  0  0  0  0
   -7.3369   -0.2607    1.2247 H   0  0  0  0  0  0  0  0  0  0  0  0
   -7.1550    1.4941    1.1081 H   0  0  0  0  0  0  0  0  0  0  0  0
   -4.7742    2.1444   -1.7975 H   0  0  0  0  0  0  0  0  0  0  0  0
   -2.3919    2.0263   -1.4077 H   0  0  0  0  0  0  0  0  0  0  0  0
    0.3597   -0.6002   -1.0495 H   0  0  0  0  0  0  0  0  0  0  0  0
   -0.8203    0.3034   -1.9922 H   0  0  0  0  0  0  0  0  0  0  0  0
   -0.0806    2.4053   -0.6816 H   0  0  0  0  0  0  0  0  0  0  0  0
    1.1176    1.7985   -1.8062 H   0  0  0  0  0  0  0  0  0  0  0  0
    2.5578    0.2102   -1.9827 H   0  0  0  0  0  0  0  0  0  0  0  0
    4.7340   -0.8167   -2.0218 H   0  0  0  0  0  0  0  0  0  0  0  0
    8.4445   -1.3692    1.1547 H   0  0  0  0  0  0  0  0  0  0  0  0
    6.9650   -1.3681    2.1126 H   0  0  0  0  0  0  0  0  0  0  0  0
    7.6463    0.1619    1.5198 H   0  0  0  0  0  0  0  0  0  0  0  0
    7.5729    0.6975   -1.0254 H   0  0  0  0  0  0  0  0  0  0  0  0
    7.0159   -0.5412   -2.1573 H   0  0  0  0  0  0  0  0  0  0  0  0
    8.4752   -0.8157   -1.2114 H   0  0  0  0  0  0  0  0  0  0  0  0
    5.8543   -3.0072    0.4610 H   0  0  0  0  0  0  0  0  0  0  0  0
    7.4308   -3.0389   -0.3448 H   0  0  0  0  0  0  0  0  0  0  0  0
    5.9711   -2.7161   -1.2785 H   0  0  0  0  0  0  0  0  0  0  0  0
    5.3758    0.2780    2.0931 H   0  0  0  0  0  0  0  0  0  0  0  0
    2.0385    1.8768    2.2624 H   0  0  0  0  0  0  0  0  0  0  0  0
    2.8710    2.1814    4.3031 H   0  0  0  0  0  0  0  0  0  0  0  0
   -1.7200   -1.5663    1.3439 H   0  0  0  0  0  0  0  0  0  0  0  0
   -2.5735   -3.2598    2.5129 H   0  0  0  0  0  0  0  0  0  0  0  0
   -5.3743   -1.3270    0.6878 H   0  0  0  0  0  0  0  0  0  0  0  0
  1  2  1  0
  2  3  1  0
  2  4  1  0
  2  5  1  0
  5  6  2  0
  6  7  1  0
  7  8  2  0
  8  9  1  0
  9 10  1  0
 10 11  1  0
 11 12  1  0
 12 13  1  0
 13 14  2  0
 14 15  1  0
 15 16  2  0
 16 17  1  0
 17 18  1  0
 17 19  1  0
 17 20  1  0
 16 21  1  0
 21 22  2  0
 22 23  1  0
 23 24  1  0
 24 25  2  0
  8 26  1  0
 26 27  1  0
 27 28  1  0
 28 29  2  0
 26 30  2  0
 30  5  1  0
 22 13  1  0
  1 31  1  0
  1 32  1  0
  1 33  1  0
  3 34  1  0
  3 35  1  0
  3 36  1  0
  4 37  1  0
  4 38  1  0
  4 39  1  0
  6 40  1  0
  7 41  1  0
 10 42  1  0
 10 43  1  0
 11 44  1  0
 11 45  1  0
 14 46  1  0
 15 47  1  0
 18 48  1  0
 18 49  1  0
 18 50  1  0
 19 51  1  0
 19 52  1  0
 19 53  1  0
 20 54  1  0
 20 55  1  0
 20 56  1  0
 21 57  1  0
 23 58  1  0
 24 59  1  0
 27 60  1  0
 28 61  1  0
 30 62  1  0
M  END
$$$$
