
     RDKit          3D

 52 55  0  0  0  0  0  0  0  0999 V2000
    7.4012    0.8730   -0.3494 C   0  0  0  0  0  0  0  0  0  0  0  0
    5.8937    0.6927   -0.4664 C   0  0  0  0  0  0  0  0  0  0  0  0
    5.3654   -0.5346    0.3064 C   0  0  0  0  0  0  0  0  0  0  0  0
    5.5789   -0.4368    1.8245 C   0  0  0  0  0  0  0  0  0  0  0  0
    3.9450   -0.8368   -0.0554 N   0  0  0  0  0  0  0  0  0  0  0  0
    2.9782    0.0743    0.3917 C   0  0  0  0  0  0  0  0  0  0  0  0
    3.2570    1.1089    0.9991 O   0  0  0  0  0  0  0  0  0  0  0  0
    1.5537   -0.2454    0.0904 C   0  0  0  0  0  0  0  0  0  0  0  0
    0.6241    0.5853    0.6069 C   0  0  0  0  0  0  0  0  0  0  0  0
   -0.8296    0.4957    0.4551 C   0  0  0  0  0  0  0  0  0  0  0  0
   -1.4682    1.1524   -0.5962 C   0  0  0  0  0  0  0  0  0  0  0  0
   -2.8653    1.0881   -0.7380 C   0  0  0  0  0  0  0  0  0  0  0  0
   -3.6446    0.3383    0.1695 C   0  0  0  0  0  0  0  0  0  0  0  0
   -2.9886   -0.3015    1.2435 C   0  0  0  0  0  0  0  0  0  0  0  0
   -1.5906   -0.2283    1.3722 C   0  0  0  0  0  0  0  0  0  0  0  0
   -3.7584   -1.1283    2.2428 C   0  0  0  0  0  0  0  0  0  0  0  0
   -5.2465   -0.8167    2.2139 C   0  0  0  0  0  0  0  0  0  0  0  0
   -5.7246   -0.7853    0.7718 C   0  0  0  0  0  0  0  0  0  0  0  0
   -5.0428    0.2834    0.0438 N   0  0  0  0  0  0  0  0  0  0  0  0
   -5.5977    0.6392   -1.2610 C   0  0  0  0  0  0  0  0  0  0  0  0
   -5.0007    1.9528   -1.7372 C   0  0  0  0  0  0  0  0  0  0  0  0
   -3.4994    1.7872   -1.9143 C   0  0  0  0  0  0  0  0  0  0  0  0
    1.2273   -1.4171   -0.7396 C   0  0  0  0  0  0  0  0  0  0  0  0
    0.1017   -1.7840   -1.0492 O   0  0  0  0  0  0  0  0  0  0  0  0
    2.3146   -2.1174   -1.1728 N   0  0  0  0  0  0  0  0  0  0  0  0
    3.6355   -1.9145   -0.8845 C   0  0  0  0  0  0  0  0  0  0  0  0
    4.6933   -3.0154   -1.5839 S   0  0  0  0  0  0  0  0  0  0  0  0
    7.7290    1.7071   -0.9787 H   0  0  0  0  0  0  0  0  0  0  0  0
    7.6990    1.0966    0.6793 H   0  0  0  0  0  0  0  0  0  0  0  0
    7.9318   -0.0265   -0.6779 H   0  0  0  0  0  0  0  0  0  0  0  0
    5.4057    1.6122   -0.1259 H   0  0  0  0  0  0  0  0  0  0  0  0
    5.6413    0.5834   -1.5287 H   0  0  0  0  0  0  0  0  0  0  0  0
    5.9882   -1.3797    0.0035 H   0  0  0  0  0  0  0  0  0  0  0  0
    5.0694   -1.2577    2.3408 H   0  0  0  0  0  0  0  0  0  0  0  0
    5.2147    0.5055    2.2427 H   0  0  0  0  0  0  0  0  0  0  0  0
    6.6441   -0.5060    2.0694 H   0  0  0  0  0  0  0  0  0  0  0  0
    0.9247    1.4400    1.2133 H   0  0  0  0  0  0  0  0  0  0  0  0
   -0.8831    1.7188   -1.3173 H   0  0  0  0  0  0  0  0  0  0  0  0
   -1.1017   -0.7454    2.1946 H   0  0  0  0  0  0  0  0  0  0  0  0
   -3.5994   -2.1881    2.0063 H   0  0  0  0  0  0  0  0  0  0  0  0
   -3.3764   -0.9510    3.2552 H   0  0  0  0  0  0  0  0  0  0  0  0
   -5.7982   -1.5702    2.7867 H   0  0  0  0  0  0  0  0  0  0  0  0
   -5.4332    0.1557    2.6882 H   0  0  0  0  0  0  0  0  0  0  0  0
   -6.8057   -0.6031    0.7641 H   0  0  0  0  0  0  0  0  0  0  0  0
   -5.5537   -1.7515    0.2796 H   0  0  0  0  0  0  0  0  0  0  0  0
   -5.4116   -0.1634   -1.9864 H   0  0  0  0  0  0  0  0  0  0  0  0
   -6.6847    0.7570   -1.1781 H   0  0  0  0  0  0  0  0  0  0  0  0
   -5.2047    2.7418   -1.0016 H   0  0  0  0  0  0  0  0  0  0  0  0
   -5.4573    2.2633   -2.6834 H   0  0  0  0  0  0  0  0  0  0  0  0
   -3.0459    2.7754   -2.0569 H   0  0  0  0  0  0  0  0  0  0  0  0
   -3.2982    1.1940   -2.8153 H   0  0  0  0  0  0  0  0  0  0  0  0
    2.0931   -2.9172   -1.7532 H   0  0  0  0  0  0  0  0  0  0  0  0
  1  2  1  0
  2  3  1  0
  3  4  1  0
  3  5  1  0
  5  6  1  0
  6  7  2  0
  6  8  1  0
  8  9  2  3
  9 10  1  0
 10 11  2  0
 11 12  1  0
 12 13  2  0
 13 14  1  0
 14 15  2  0
 14 16  1  0
 16 17  1  0
 17 18  1  0
 18 19  1  0
 19 20  1  0
 20 21  1  0
 21 22  1  0
  8 23  1  0
 23 24  2  0
 23 25  1  0
 25 26  1  0
 26 27  2  0
 26  5  1  0
 15 10  1  0
 22 12  1  0
 19 13  1  0
  1 28  1  0
  1 29  1  0
  1 30  1  0
  2 31  1  0
  2 32  1  0
  3 33  1  0
  4 34  1  0
  4 35  1  0
  4 36  1  0
  9 37  1  0
 11 38  1  0
 15 39  1  0
 16 40  1  0
 16 41  1  0
 17 42  1  0
 17 43  1  0
 18 44  1  0
 18 45  1  0
 20 46  1  0
 20 47  1  0
 21 48  1  0
 21 49  1  0
 22 50  1  0
 22 51  1  0
 25 52  1  0
M  END
$$$$
