
     RDKit          3D

 42 43  0  0  0  0  0  0  0  0999 V2000
    6.2025    1.4888   -1.2216 C   0  0  0  0  0  0  0  0  0  0  0  0
    4.7168    1.5763   -1.0679 C   0  0  0  0  0  0  0  0  0  0  0  0
    3.9927    3.1053   -0.8583 S   0  0  0  0  0  0  0  0  0  0  0  0
    2.4374    2.4356   -0.7690 C   0  0  0  0  0  0  0  0  0  0  0  0
    1.3800    3.2452   -0.5941 N   0  0  0  0  0  0  0  0  0  0  0  0
    0.2276    2.5865   -0.5417 C   0  0  0  0  0  0  0  0  0  0  0  0
    0.0434    1.2634   -0.6464 N   0  0  0  0  0  0  0  0  0  0  0  0
    1.1352    0.4822   -0.8287 C   0  0  0  0  0  0  0  0  0  0  0  0
    0.8955   -1.2687   -0.9440 S   0  0  0  0  0  0  0  0  0  0  0  0
   -0.6980   -1.3502   -1.8196 C   0  0  0  0  0  0  0  0  0  0  0  0
   -1.8394   -1.5367   -0.8349 C   0  0  0  0  0  0  0  0  0  0  0  0
   -2.3665   -2.6306   -0.6501 O   0  0  0  0  0  0  0  0  0  0  0  0
   -2.2361   -0.3745   -0.2071 N   0  0  0  0  0  0  0  0  0  0  0  0
   -3.2561   -0.3046    0.8369 C   0  0  0  0  0  0  0  0  0  0  0  0
   -4.6149   -0.7687    0.3036 C   0  0  0  0  0  0  0  0  0  0  0  0
   -2.8189   -1.0278    2.1389 C   0  0  0  0  0  0  0  0  0  0  0  0
   -1.5102   -0.4412    2.6858 C   0  0  0  0  0  0  0  0  0  0  0  0
   -3.8906   -0.9505    3.2320 C   0  0  0  0  0  0  0  0  0  0  0  0
    2.4232    1.0527   -0.8934 C   0  0  0  0  0  0  0  0  0  0  0  0
    3.7837    0.5456   -1.0663 C   0  0  0  0  0  0  0  0  0  0  0  0
    4.1532   -0.8986   -1.2270 C   0  0  0  0  0  0  0  0  0  0  0  0
    6.6294    0.8749   -0.4211 H   0  0  0  0  0  0  0  0  0  0  0  0
    6.4564    1.0302   -2.1832 H   0  0  0  0  0  0  0  0  0  0  0  0
    6.6877    2.4694   -1.1826 H   0  0  0  0  0  0  0  0  0  0  0  0
   -0.6641    3.1896   -0.3979 H   0  0  0  0  0  0  0  0  0  0  0  0
   -0.6793   -2.2234   -2.4809 H   0  0  0  0  0  0  0  0  0  0  0  0
   -0.8737   -0.4753   -2.4531 H   0  0  0  0  0  0  0  0  0  0  0  0
   -1.5702    0.3948   -0.2585 H   0  0  0  0  0  0  0  0  0  0  0  0
   -3.3509    0.7673    1.0558 H   0  0  0  0  0  0  0  0  0  0  0  0
   -4.6591   -1.8568    0.1928 H   0  0  0  0  0  0  0  0  0  0  0  0
   -5.4259   -0.4668    0.9741 H   0  0  0  0  0  0  0  0  0  0  0  0
   -4.8208   -0.3248   -0.6772 H   0  0  0  0  0  0  0  0  0  0  0  0
   -2.6411   -2.0891    1.9245 H   0  0  0  0  0  0  0  0  0  0  0  0
   -1.6126    0.6292    2.8953 H   0  0  0  0  0  0  0  0  0  0  0  0
   -1.2195   -0.9413    3.6161 H   0  0  0  0  0  0  0  0  0  0  0  0
   -0.6870   -0.5722    1.9780 H   0  0  0  0  0  0  0  0  0  0  0  0
   -4.1753    0.0870    3.4356 H   0  0  0  0  0  0  0  0  0  0  0  0
   -3.5265   -1.3903    4.1672 H   0  0  0  0  0  0  0  0  0  0  0  0
   -4.7904   -1.5053    2.9480 H   0  0  0  0  0  0  0  0  0  0  0  0
    3.6722   -1.3219   -2.1139 H   0  0  0  0  0  0  0  0  0  0  0  0
    5.2318   -1.0352   -1.3526 H   0  0  0  0  0  0  0  0  0  0  0  0
    3.8582   -1.4698   -0.3413 H   0  0  0  0  0  0  0  0  0  0  0  0
  1  2  1  0
  2  3  1  0
  3  4  1  0
  4  5  2  0
  5  6  1  0
  6  7  2  0
  7  8  1  0
  8  9  1  0
  9 10  1  0
 10 11  1  0
 11 12  2  0
 11 13  1  0
 13 14  1  0
 14 15  1  0
 14 16  1  0
 16 17  1  0
 16 18  1  0
  8 19  2  0
 19 20  1  0
 20 21  1  0
 20  2  2  0
 19  4  1  0
  1 22  1  0
  1 23  1  0
  1 24  1  0
  6 25  1  0
 10 26  1  0
 10 27  1  0
 13 28  1  0
 14 29  1  0
 15 30  1  0
 15 31  1  0
 15 32  1  0
 16 33  1  0
 17 34  1  0
 17 35  1  0
 17 36  1  0
 18 37  1  0
 18 38  1  0
 18 39  1  0
 21 40  1  0
 21 41  1  0
 21 42  1  0
M  END
$$$$
