
     RDKit          3D

 34 36  0  0  0  0  0  0  0  0999 V2000
    4.3401   -1.4512   -1.2906 C   0  0  0  0  0  0  0  0  0  0  0  0
    4.1095   -1.1859    0.1663 C   0  0  0  0  0  0  0  0  0  0  0  0
    5.1658   -0.8579    0.9915 C   0  0  0  0  0  0  0  0  0  0  0  0
    4.8547   -0.6328    2.3120 C   0  0  0  0  0  0  0  0  0  0  0  0
    3.6075   -0.7142    2.8064 N   0  0  0  0  0  0  0  0  0  0  0  0
    2.6414   -1.0305    1.9273 C   0  0  0  0  0  0  0  0  0  0  0  0
    0.9842   -1.1554    2.5571 S   0  0  0  0  0  0  0  0  0  0  0  0
    0.0862   -0.1260    1.4641 C   0  0  0  0  0  0  0  0  0  0  0  0
    0.4481    1.1679    1.0509 C   0  0  0  0  0  0  0  0  0  0  0  0
   -0.5206    1.6101    0.1769 C   0  0  0  0  0  0  0  0  0  0  0  0
   -0.4889    2.7233   -0.5574 O   0  0  0  0  0  0  0  0  0  0  0  0
   -1.5475    0.6578    0.1340 N   0  0  0  0  0  0  0  0  0  0  0  0
   -2.8049    0.8011   -0.5366 C   0  0  0  0  0  0  0  0  0  0  0  0
   -3.4025    2.0668   -0.6515 C   0  0  0  0  0  0  0  0  0  0  0  0
   -4.6299    2.2126   -1.3052 C   0  0  0  0  0  0  0  0  0  0  0  0
   -5.2662    1.0958   -1.8411 C   0  0  0  0  0  0  0  0  0  0  0  0
   -6.9248    1.2939   -2.7251 Br  0  0  0  0  0  0  0  0  0  0  0  0
   -4.6907   -0.1666   -1.7233 C   0  0  0  0  0  0  0  0  0  0  0  0
   -3.4644   -0.3156   -1.0673 C   0  0  0  0  0  0  0  0  0  0  0  0
   -1.1288   -0.4407    0.8900 C   0  0  0  0  0  0  0  0  0  0  0  0
   -1.8700   -1.5406    1.0391 O   0  0  0  0  0  0  0  0  0  0  0  0
    2.8437   -1.2816    0.6203 N   0  0  0  0  0  0  0  0  0  0  0  0
    3.3999   -1.6942   -1.7962 H   0  0  0  0  0  0  0  0  0  0  0  0
    5.0237   -2.2964   -1.4177 H   0  0  0  0  0  0  0  0  0  0  0  0
    4.7675   -0.5667   -1.7732 H   0  0  0  0  0  0  0  0  0  0  0  0
    6.1822   -0.7815    0.6287 H   0  0  0  0  0  0  0  0  0  0  0  0
    5.6236   -0.3719    3.0335 H   0  0  0  0  0  0  0  0  0  0  0  0
    1.3474    1.7147    1.3017 H   0  0  0  0  0  0  0  0  0  0  0  0
   -1.0502    2.5950   -1.3432 H   0  0  0  0  0  0  0  0  0  0  0  0
   -2.9601    2.9485   -0.1914 H   0  0  0  0  0  0  0  0  0  0  0  0
   -5.0863    3.1969   -1.3753 H   0  0  0  0  0  0  0  0  0  0  0  0
   -5.1841   -1.0427   -2.1365 H   0  0  0  0  0  0  0  0  0  0  0  0
   -3.0315   -1.3113   -1.0116 H   0  0  0  0  0  0  0  0  0  0  0  0
   -1.3739   -2.1255    1.6434 H   0  0  0  0  0  0  0  0  0  0  0  0
  1  2  1  0
  2  3  2  0
  3  4  1  0
  4  5  2  0
  5  6  1  0
  6  7  1  0
  7  8  1  0
  8  9  1  0
  9 10  2  0
 10 11  1  0
 10 12  1  0
 12 13  1  0
 13 14  2  0
 14 15  1  0
 15 16  2  0
 16 17  1  0
 16 18  1  0
 18 19  2  0
 12 20  1  0
 20 21  1  0
  6 22  2  0
 22  2  1  0
 20  8  2  0
 19 13  1  0
  1 23  1  0
  1 24  1  0
  1 25  1  0
  3 26  1  0
  4 27  1  0
  9 28  1  0
 11 29  1  0
 14 30  1  0
 15 31  1  0
 18 32  1  0
 19 33  1  0
 21 34  1  0
M  END
$$$$
