
     RDKit          3D

 43 45  0  0  0  0  0  0  0  0999 V2000
    4.9478    2.6778   -0.7872 C   0  0  0  0  0  0  0  0  0  0  0  0
    3.9001    1.6029   -0.9371 C   0  0  0  0  0  0  0  0  0  0  0  0
    4.3244    0.1898   -0.6881 C   0  0  0  0  0  0  0  0  0  0  0  0
    3.3742   -0.7624   -0.7765 C   0  0  0  0  0  0  0  0  0  0  0  0
    3.7207   -2.2028   -0.5581 C   0  0  0  0  0  0  0  0  0  0  0  0
    2.0653   -0.3593   -1.1061 N   0  0  0  0  0  0  0  0  0  0  0  0
    0.8496   -1.0017   -1.2514 C   0  0  0  0  0  0  0  0  0  0  0  0
    0.5330   -2.6585   -0.8902 S   0  0  0  0  0  0  0  0  0  0  0  0
   -0.6762   -2.5275    0.4582 C   0  0  0  0  0  0  0  0  0  0  0  0
   -0.4014   -1.3419    1.3730 C   0  0  0  0  0  0  0  0  0  0  0  0
    0.6300   -1.3352    2.0563 O   0  0  0  0  0  0  0  0  0  0  0  0
   -1.3193   -0.2891    1.4258 N   0  0  0  0  0  0  0  0  0  0  0  0
   -1.0352    0.7735    2.3841 C   0  0  0  0  0  0  0  0  0  0  0  0
   -2.4445   -0.1037    0.4812 C   0  0  0  0  0  0  0  0  0  0  0  0
   -3.7567   -0.6336    1.0779 C   0  0  0  0  0  0  0  0  0  0  0  0
   -4.8319   -0.3055    0.0505 C   0  0  0  0  0  0  0  0  0  0  0  0
   -4.4113    1.3134   -0.5585 S   0  0  0  0  0  6  0  0  0  0  0  0
   -4.4175    1.2712   -2.0025 O   0  0  0  0  0  0  0  0  0  0  0  0
   -5.1805    2.2852    0.1895 O   0  0  0  0  0  0  0  0  0  0  0  0
   -2.7270    1.3391    0.0373 C   0  0  0  0  0  0  0  0  0  0  0  0
   -0.0822   -0.1533   -1.6234 N   0  0  0  0  0  0  0  0  0  0  0  0
    0.4840    1.0939   -1.6755 N   0  0  0  0  0  0  0  0  0  0  0  0
    1.7605    0.9866   -1.3608 C   0  0  0  0  0  0  0  0  0  0  0  0
    2.6976    1.9715   -1.2604 N   0  0  0  0  0  0  0  0  0  0  0  0
    5.9456    2.2586   -0.6375 H   0  0  0  0  0  0  0  0  0  0  0  0
    4.9554    3.3075   -1.6807 H   0  0  0  0  0  0  0  0  0  0  0  0
    4.6949    3.2961    0.0792 H   0  0  0  0  0  0  0  0  0  0  0  0
    5.3616   -0.0185   -0.4540 H   0  0  0  0  0  0  0  0  0  0  0  0
    3.4381   -2.8005   -1.4306 H   0  0  0  0  0  0  0  0  0  0  0  0
    3.2309   -2.5900    0.3411 H   0  0  0  0  0  0  0  0  0  0  0  0
    4.8003   -2.3535   -0.4237 H   0  0  0  0  0  0  0  0  0  0  0  0
   -1.6879   -2.5680    0.0656 H   0  0  0  0  0  0  0  0  0  0  0  0
   -0.5530   -3.4227    1.0782 H   0  0  0  0  0  0  0  0  0  0  0  0
   -0.4415    1.5443    1.8808 H   0  0  0  0  0  0  0  0  0  0  0  0
   -1.9658    1.1931    2.7676 H   0  0  0  0  0  0  0  0  0  0  0  0
   -0.4600    0.4037    3.2367 H   0  0  0  0  0  0  0  0  0  0  0  0
   -2.2439   -0.6790   -0.4248 H   0  0  0  0  0  0  0  0  0  0  0  0
   -3.9739   -0.1312    2.0292 H   0  0  0  0  0  0  0  0  0  0  0  0
   -3.7147   -1.7103    1.2787 H   0  0  0  0  0  0  0  0  0  0  0  0
   -4.7937   -0.9992   -0.7941 H   0  0  0  0  0  0  0  0  0  0  0  0
   -5.8360   -0.2923    0.4788 H   0  0  0  0  0  0  0  0  0  0  0  0
   -2.6952    2.0609    0.8560 H   0  0  0  0  0  0  0  0  0  0  0  0
   -2.0644    1.6705   -0.7628 H   0  0  0  0  0  0  0  0  0  0  0  0
  1  2  1  0
  2  3  1  0
  3  4  2  0
  4  5  1  0
  4  6  1  0
  6  7  1  0
  7  8  1  0
  8  9  1  0
  9 10  1  0
 10 11  2  0
 10 12  1  0
 12 13  1  0
 12 14  1  0
 14 15  1  0
 15 16  1  0
 16 17  1  0
 17 18  2  0
 17 19  2  0
 17 20  1  0
  7 21  2  0
 21 22  1  0
 22 23  2  0
 23 24  1  0
 24  2  2  0
 23  6  1  0
 20 14  1  0
  1 25  1  0
  1 26  1  0
  1 27  1  0
  3 28  1  0
  5 29  1  0
  5 30  1  0
  5 31  1  0
  9 32  1  0
  9 33  1  0
 13 34  1  0
 13 35  1  0
 13 36  1  0
 14 37  1  0
 15 38  1  0
 15 39  1  0
 16 40  1  0
 16 41  1  0
 20 42  1  0
 20 43  1  0
M  END
$$$$
