
     RDKit          3D

 51 54  0  0  0  0  0  0  0  0999 V2000
    5.7558   -2.0042    3.0422 C   0  0  0  0  0  0  0  0  0  0  0  0
    5.2310   -1.3215    1.8141 C   0  0  0  0  0  0  0  0  0  0  0  0
    3.8658   -1.0436    1.6863 C   0  0  0  0  0  0  0  0  0  0  0  0
    3.3726   -0.4351    0.5301 C   0  0  0  0  0  0  0  0  0  0  0  0
    4.2364   -0.0970   -0.5209 C   0  0  0  0  0  0  0  0  0  0  0  0
    3.6911    0.5434   -1.7723 C   0  0  0  0  0  0  0  0  0  0  0  0
    3.0171   -0.4470   -2.6012 N   0  0  0  0  0  0  0  0  0  0  0  0
    1.8972    0.0765   -3.7209 S   0  0  0  0  0  6  0  0  0  0  0  0
    2.3054    1.3805   -4.1929 O   0  0  0  0  0  0  0  0  0  0  0  0
    1.6740   -1.0283   -4.6270 O   0  0  0  0  0  0  0  0  0  0  0  0
    0.4434    0.2488   -2.7166 C   0  0  0  0  0  0  0  0  0  0  0  0
    0.0071    1.5269   -2.3310 C   0  0  0  0  0  0  0  0  0  0  0  0
   -1.1351    1.6674   -1.5349 C   0  0  0  0  0  0  0  0  0  0  0  0
   -1.8253    0.5274   -1.1515 C   0  0  0  0  0  0  0  0  0  0  0  0
   -1.3910   -0.7387   -1.5527 C   0  0  0  0  0  0  0  0  0  0  0  0
   -0.2577   -0.9002   -2.3362 C   0  0  0  0  0  0  0  0  0  0  0  0
   -2.2727   -1.8162   -1.0108 C   0  0  0  0  0  0  0  0  0  0  0  0
   -3.3745   -1.0078   -0.3154 C   0  0  0  0  0  0  0  0  0  0  0  0
   -2.9900    0.4121   -0.3691 N   0  0  0  0  0  0  0  0  0  0  0  0
   -3.6873    1.4612    0.2232 C   0  0  0  0  0  0  0  0  0  0  0  0
   -3.3204    2.6398    0.1492 O   0  0  0  0  0  0  0  0  0  0  0  0
   -4.9760    1.0596    0.9996 C   0  0  0  0  0  0  0  0  0  0  0  0
   -4.8088    0.6278    2.4843 C   0  0  0  0  0  0  0  0  0  0  0  0
   -6.1524    1.3211    2.7735 C   0  0  0  0  0  0  0  0  0  0  0  0
   -5.8778    2.2070    1.5449 C   0  0  0  0  0  0  0  0  0  0  0  0
    5.5990   -0.3981   -0.4016 C   0  0  0  0  0  0  0  0  0  0  0  0
    6.0909   -1.0070    0.7558 C   0  0  0  0  0  0  0  0  0  0  0  0
    5.1568   -1.7430    3.9208 H   0  0  0  0  0  0  0  0  0  0  0  0
    5.7302   -3.0899    2.9066 H   0  0  0  0  0  0  0  0  0  0  0  0
    6.7864   -1.6970    3.2492 H   0  0  0  0  0  0  0  0  0  0  0  0
    3.1755   -1.2993    2.4872 H   0  0  0  0  0  0  0  0  0  0  0  0
    2.3068   -0.2292    0.4498 H   0  0  0  0  0  0  0  0  0  0  0  0
    4.5082    0.9957   -2.3458 H   0  0  0  0  0  0  0  0  0  0  0  0
    3.0117    1.3520   -1.4806 H   0  0  0  0  0  0  0  0  0  0  0  0
    3.5299   -1.2834   -2.8705 H   0  0  0  0  0  0  0  0  0  0  0  0
    0.5494    2.4170   -2.6440 H   0  0  0  0  0  0  0  0  0  0  0  0
   -1.4604    2.6604   -1.2425 H   0  0  0  0  0  0  0  0  0  0  0  0
    0.0769   -1.8875   -2.6416 H   0  0  0  0  0  0  0  0  0  0  0  0
   -2.6832   -2.4471   -1.8049 H   0  0  0  0  0  0  0  0  0  0  0  0
   -1.7282   -2.4362   -0.2914 H   0  0  0  0  0  0  0  0  0  0  0  0
   -4.3336   -1.1274   -0.8328 H   0  0  0  0  0  0  0  0  0  0  0  0
   -3.5049   -1.3201    0.7256 H   0  0  0  0  0  0  0  0  0  0  0  0
   -5.5902    0.3470    0.4299 H   0  0  0  0  0  0  0  0  0  0  0  0
   -4.7927   -0.4495    2.6690 H   0  0  0  0  0  0  0  0  0  0  0  0
   -3.9533    1.0880    2.9926 H   0  0  0  0  0  0  0  0  0  0  0  0
   -6.2232    1.8424    3.7311 H   0  0  0  0  0  0  0  0  0  0  0  0
   -7.0219    0.6639    2.6578 H   0  0  0  0  0  0  0  0  0  0  0  0
   -5.3466    3.1350    1.7869 H   0  0  0  0  0  0  0  0  0  0  0  0
   -6.7534    2.4499    0.9368 H   0  0  0  0  0  0  0  0  0  0  0  0
    6.2894   -0.1622   -1.2085 H   0  0  0  0  0  0  0  0  0  0  0  0
    7.1525   -1.2341    0.8263 H   0  0  0  0  0  0  0  0  0  0  0  0
  1  2  1  0
  2  3  2  0
  3  4  1  0
  4  5  2  0
  5  6  1  0
  6  7  1  0
  7  8  1  0
  8  9  2  0
  8 10  2  0
  8 11  1  0
 11 12  2  0
 12 13  1  0
 13 14  2  0
 14 15  1  0
 15 16  2  0
 15 17  1  0
 17 18  1  0
 18 19  1  0
 19 20  1  0
 20 21  2  0
 20 22  1  0
 22 23  1  0
 23 24  1  0
 24 25  1  0
  5 26  1  0
 26 27  2  0
 27  2  1  0
 16 11  1  0
 25 22  1  0
 19 14  1  0
  1 28  1  0
  1 29  1  0
  1 30  1  0
  3 31  1  0
  4 32  1  0
  6 33  1  0
  6 34  1  0
  7 35  1  0
 12 36  1  0
 13 37  1  0
 16 38  1  0
 17 39  1  0
 17 40  1  0
 18 41  1  0
 18 42  1  0
 22 43  1  0
 23 44  1  0
 23 45  1  0
 24 46  1  0
 24 47  1  0
 25 48  1  0
 25 49  1  0
 26 50  1  0
 27 51  1  0
M  END
$$$$
