
     RDKit          3D

 42 44  0  0  0  0  0  0  0  0999 V2000
   -5.4927    3.5087   -1.8851 N   0  0  0  0  0  0  0  0  0  0  0  0
   -5.2348    2.3904   -1.7145 C   0  0  0  0  0  0  0  0  0  0  0  0
   -4.8931    0.9787   -1.4994 C   0  0  0  0  0  0  0  0  0  0  0  0
   -3.7109    0.8606   -0.5277 C   0  0  0  0  0  0  0  0  0  0  0  0
   -3.3563   -0.5327   -0.1993 N   0  0  0  0  0  0  0  0  0  0  0  0
   -2.8960   -1.2894   -1.3847 C   0  0  0  0  0  0  0  0  0  0  0  0
   -1.9724   -2.4772   -1.0525 C   0  0  0  0  0  0  0  0  0  0  0  0
   -0.7529   -2.0443   -0.3477 N   0  0  0  0  0  0  0  0  0  0  0  0
    0.4287   -2.8030   -0.3432 C   0  0  0  0  0  0  0  0  0  0  0  0
    0.5375   -4.3829   -0.9263 S   0  0  0  0  0  0  0  0  0  0  0  0
    1.6550   -2.2179    0.1817 C   0  0  0  0  0  0  0  0  0  0  0  0
    2.7566   -2.7524    0.8308 C   0  0  0  0  0  0  0  0  0  0  0  0
    3.6555   -1.6860    1.0789 C   0  0  0  0  0  0  0  0  0  0  0  0
    3.0738   -0.5490    0.5586 C   0  0  0  0  0  0  0  0  0  0  0  0
    3.4622    0.8570    0.4793 C   0  0  0  0  0  0  0  0  0  0  0  0
    2.7212    1.7742   -0.2816 C   0  0  0  0  0  0  0  0  0  0  0  0
    3.0970    3.1196   -0.3548 C   0  0  0  0  0  0  0  0  0  0  0  0
    4.2235    3.5715    0.3337 C   0  0  0  0  0  0  0  0  0  0  0  0
    4.6317    5.2441    0.2023 Cl  0  0  0  0  0  0  0  0  0  0  0  0
    4.9734    2.6710    1.0952 C   0  0  0  0  0  0  0  0  0  0  0  0
    6.3800    3.1528    1.9771 Cl  0  0  0  0  0  0  0  0  0  0  0  0
    4.5935    1.3241    1.1650 C   0  0  0  0  0  0  0  0  0  0  0  0
    1.8647   -0.8716    0.0136 O   0  0  0  0  0  0  0  0  0  0  0  0
   -0.9120   -0.8293    0.4688 C   0  0  0  0  0  0  0  0  0  0  0  0
   -2.3726   -0.5998    0.9039 C   0  0  0  0  0  0  0  0  0  0  0  0
   -4.6495    0.5210   -2.4645 H   0  0  0  0  0  0  0  0  0  0  0  0
   -5.7629    0.4470   -1.0963 H   0  0  0  0  0  0  0  0  0  0  0  0
   -2.8372    1.3947   -0.9257 H   0  0  0  0  0  0  0  0  0  0  0  0
   -3.9950    1.3782    0.3990 H   0  0  0  0  0  0  0  0  0  0  0  0
   -2.3467   -0.6262   -2.0669 H   0  0  0  0  0  0  0  0  0  0  0  0
   -3.7711   -1.6657   -1.9263 H   0  0  0  0  0  0  0  0  0  0  0  0
   -2.4912   -3.1984   -0.4094 H   0  0  0  0  0  0  0  0  0  0  0  0
   -1.7029   -2.9846   -1.9842 H   0  0  0  0  0  0  0  0  0  0  0  0
    2.8944   -3.7920    1.0972 H   0  0  0  0  0  0  0  0  0  0  0  0
    4.6161   -1.7515    1.5700 H   0  0  0  0  0  0  0  0  0  0  0  0
    1.8420    1.4477   -0.8349 H   0  0  0  0  0  0  0  0  0  0  0  0
    2.5052    3.8077   -0.9543 H   0  0  0  0  0  0  0  0  0  0  0  0
    5.1900    0.6413    1.7659 H   0  0  0  0  0  0  0  0  0  0  0  0
   -0.5660    0.0191   -0.1331 H   0  0  0  0  0  0  0  0  0  0  0  0
   -0.2865   -0.8996    1.3645 H   0  0  0  0  0  0  0  0  0  0  0  0
   -2.4279    0.2864    1.5478 H   0  0  0  0  0  0  0  0  0  0  0  0
   -2.6710   -1.4426    1.5414 H   0  0  0  0  0  0  0  0  0  0  0  0
  1  2  3  0
  2  3  1  0
  3  4  1  0
  4  5  1  0
  5  6  1  0
  6  7  1  0
  7  8  1  0
  8  9  1  0
  9 10  2  0
  9 11  1  0
 11 12  2  0
 12 13  1  0
 13 14  2  0
 14 15  1  0
 15 16  2  0
 16 17  1  0
 17 18  2  0
 18 19  1  0
 18 20  1  0
 20 21  1  0
 20 22  2  0
 14 23  1  0
  8 24  1  0
 24 25  1  0
 25  5  1  0
 23 11  1  0
 22 15  1  0
  3 26  1  0
  3 27  1  0
  4 28  1  0
  4 29  1  0
  6 30  1  0
  6 31  1  0
  7 32  1  0
  7 33  1  0
 12 34  1  0
 13 35  1  0
 16 36  1  0
 17 37  1  0
 22 38  1  0
 24 39  1  0
 24 40  1  0
 25 41  1  0
 25 42  1  0
M  END
$$$$
