
     RDKit          3D

 37 38  0  0  0  0  0  0  0  0999 V2000
   -2.9724    2.1738   -1.7870 C   0  0  0  0  0  0  0  0  0  0  0  0
   -3.2447    0.8196   -1.2029 C   0  0  0  0  0  0  0  0  0  0  0  0
   -4.5487    0.4322   -0.9208 C   0  0  0  0  0  0  0  0  0  0  0  0
   -4.7787   -0.8387   -0.3865 C   0  0  0  0  0  0  0  0  0  0  0  0
   -6.1737   -1.2941   -0.0571 C   0  0  0  0  0  0  0  0  0  0  0  0
   -6.3265   -2.6450   -0.1275 F   0  0  0  0  0  0  0  0  0  0  0  0
   -6.5490   -0.9374    1.2009 F   0  0  0  0  0  0  0  0  0  0  0  0
   -7.1134   -0.7692   -0.8918 F   0  0  0  0  0  0  0  0  0  0  0  0
   -3.6791   -1.6654   -0.1343 C   0  0  0  0  0  0  0  0  0  0  0  0
   -2.4007   -1.2068   -0.4265 C   0  0  0  0  0  0  0  0  0  0  0  0
   -1.2982   -2.0725   -0.2010 N   0  0  0  0  0  0  0  0  0  0  0  0
   -0.0606   -1.3672   -0.3676 N   0  0  0  0  0  0  0  0  0  0  0  0
    0.6733   -1.2149    0.8098 C   0  0  0  0  0  0  0  0  0  0  0  0
    0.3525   -1.7825    1.8481 O   0  0  0  0  0  0  0  0  0  0  0  0
    1.7635   -0.3964    0.6059 N   0  0  0  0  0  0  0  0  0  0  0  0
    2.6773   -0.0784    1.5901 C   0  0  0  0  0  0  0  0  0  0  0  0
    2.4788   -0.1108    2.7976 O   0  0  0  0  0  0  0  0  0  0  0  0
    4.0007    0.4018    1.1034 C   0  0  0  0  0  0  0  0  0  0  0  0
    5.1362    0.0916    1.8647 C   0  0  0  0  0  0  0  0  0  0  0  0
    6.4002    0.5185    1.4498 C   0  0  0  0  0  0  0  0  0  0  0  0
    6.5277    1.2646    0.2798 C   0  0  0  0  0  0  0  0  0  0  0  0
    8.0820    1.7927   -0.2331 Cl  0  0  0  0  0  0  0  0  0  0  0  0
    5.4015    1.5940   -0.4752 C   0  0  0  0  0  0  0  0  0  0  0  0
    4.1346    1.1674   -0.0635 C   0  0  0  0  0  0  0  0  0  0  0  0
   -2.1795    0.0165   -0.9722 N   0  0  0  0  0  0  0  0  0  0  0  0
   -3.4776    2.2777   -2.7522 H   0  0  0  0  0  0  0  0  0  0  0  0
   -3.3263    2.9563   -1.1086 H   0  0  0  0  0  0  0  0  0  0  0  0
   -1.8992    2.3202   -1.9461 H   0  0  0  0  0  0  0  0  0  0  0  0
   -5.3777    1.1075   -1.1195 H   0  0  0  0  0  0  0  0  0  0  0  0
   -3.8195   -2.6606    0.2795 H   0  0  0  0  0  0  0  0  0  0  0  0
   -1.3506   -2.4410    0.7587 H   0  0  0  0  0  0  0  0  0  0  0  0
   -0.2181   -0.5033   -0.8924 H   0  0  0  0  0  0  0  0  0  0  0  0
    2.0807   -0.4002   -0.3494 H   0  0  0  0  0  0  0  0  0  0  0  0
    5.0369   -0.4840    2.7843 H   0  0  0  0  0  0  0  0  0  0  0  0
    7.2750    0.2700    2.0455 H   0  0  0  0  0  0  0  0  0  0  0  0
    5.5043    2.1925   -1.3774 H   0  0  0  0  0  0  0  0  0  0  0  0
    3.2689    1.4712   -0.6452 H   0  0  0  0  0  0  0  0  0  0  0  0
  1  2  1  0
  2  3  2  0
  3  4  1  0
  4  5  1  0
  5  6  1  0
  5  7  1  0
  5  8  1  0
  4  9  2  0
  9 10  1  0
 10 11  1  0
 11 12  1  0
 12 13  1  0
 13 14  2  0
 13 15  1  0
 15 16  1  0
 16 17  2  0
 16 18  1  0
 18 19  2  0
 19 20  1  0
 20 21  2  0
 21 22  1  0
 21 23  1  0
 23 24  2  0
 10 25  2  0
 25  2  1  0
 24 18  1  0
  1 26  1  0
  1 27  1  0
  1 28  1  0
  3 29  1  0
  9 30  1  0
 11 31  1  0
 12 32  1  0
 15 33  1  0
 19 34  1  0
 20 35  1  0
 23 36  1  0
 24 37  1  0
M  END
$$$$
