
     RDKit          3D

 55 57  0  0  0  0  0  0  0  0999 V2000
    0.0681   -4.2974    0.3006 C   0  0  0  0  0  0  0  0  0  0  0  0
   -1.3710   -3.7815    0.2609 C   0  0  0  0  0  0  0  0  0  0  0  0
   -1.6032   -2.5482   -0.6567 C   0  0  0  0  0  0  0  0  0  0  0  0
   -1.2897   -2.9122   -2.1234 C   0  0  0  0  0  0  0  0  0  0  0  0
   -3.0899   -2.1308   -0.5908 C   0  0  0  0  0  0  0  0  0  0  0  0
   -0.7490   -1.4078   -0.2797 N   0  0  0  0  0  0  0  0  0  0  0  0
   -0.7574   -0.7585    0.9417 C   0  0  0  0  0  0  0  0  0  0  0  0
   -1.4996   -1.1107    1.8663 O   0  0  0  0  0  0  0  0  0  0  0  0
    0.2137    0.4674    1.0858 C   0  0  0  0  0  0  0  0  0  0  0  0
   -0.4730    1.7145    1.6378 C   0  0  0  0  0  0  0  0  0  0  0  0
   -1.8271    2.0192    1.4128 C   0  0  0  0  0  0  0  0  0  0  0  0
   -2.4034    3.1716    1.9678 C   0  0  0  0  0  0  0  0  0  0  0  0
   -1.6369    4.0329    2.7535 C   0  0  0  0  0  0  0  0  0  0  0  0
   -0.2929    3.7450    2.9854 C   0  0  0  0  0  0  0  0  0  0  0  0
    0.2742    2.5962    2.4312 C   0  0  0  0  0  0  0  0  0  0  0  0
    1.5639    2.3277    2.6904 F   0  0  0  0  0  0  0  0  0  0  0  0
    1.1204    0.6764   -0.0773 N   0  0  0  0  0  0  0  0  0  0  0  0
    0.5575    1.1343   -1.2880 C   0  0  0  0  0  0  0  0  0  0  0  0
    0.4723    0.3748   -2.2632 O   0  0  0  0  0  0  0  0  0  0  0  0
    0.0360    2.5102   -1.3614 C   0  0  0  0  0  0  0  0  0  0  0  0
   -0.9926    2.9603   -2.2342 C   0  0  0  0  0  0  0  0  0  0  0  0
   -1.1710    4.2895   -1.9424 C   0  0  0  0  0  0  0  0  0  0  0  0
   -0.2505    4.5746   -0.9773 N   0  0  0  0  0  0  0  0  0  0  0  0
    0.5352    3.5387   -0.6471 N   0  0  0  0  0  0  0  0  0  0  0  0
    2.3362   -0.1106   -0.1709 C   0  0  0  0  0  0  0  0  0  0  0  0
    3.2479    0.1451   -1.2138 C   0  0  0  0  0  0  0  0  0  0  0  0
    4.4390   -0.5813   -1.3478 C   0  0  0  0  0  0  0  0  0  0  0  0
    4.7590   -1.5611   -0.4163 C   0  0  0  0  0  0  0  0  0  0  0  0
    3.8797   -1.8266    0.6343 C   0  0  0  0  0  0  0  0  0  0  0  0
    2.6862   -1.1037    0.7608 C   0  0  0  0  0  0  0  0  0  0  0  0
    0.7661   -3.5180    0.6246 H   0  0  0  0  0  0  0  0  0  0  0  0
    0.3913   -4.6696   -0.6786 H   0  0  0  0  0  0  0  0  0  0  0  0
    0.1430   -5.1314    1.0106 H   0  0  0  0  0  0  0  0  0  0  0  0
   -2.0222   -4.6100   -0.0587 H   0  0  0  0  0  0  0  0  0  0  0  0
   -1.6739   -3.5483    1.2897 H   0  0  0  0  0  0  0  0  0  0  0  0
   -1.8663   -3.7840   -2.4492 H   0  0  0  0  0  0  0  0  0  0  0  0
   -1.5355   -2.0773   -2.7969 H   0  0  0  0  0  0  0  0  0  0  0  0
   -0.2258   -3.1279   -2.2657 H   0  0  0  0  0  0  0  0  0  0  0  0
   -3.4179   -1.9140    0.4362 H   0  0  0  0  0  0  0  0  0  0  0  0
   -3.7390   -2.9300   -0.9807 H   0  0  0  0  0  0  0  0  0  0  0  0
   -3.2688   -1.2272   -1.1894 H   0  0  0  0  0  0  0  0  0  0  0  0
   -0.0390   -1.1318   -0.9656 H   0  0  0  0  0  0  0  0  0  0  0  0
    0.8488    0.1634    1.9307 H   0  0  0  0  0  0  0  0  0  0  0  0
   -2.4539    1.3615    0.8129 H   0  0  0  0  0  0  0  0  0  0  0  0
   -3.4554    3.3896    1.7911 H   0  0  0  0  0  0  0  0  0  0  0  0
   -2.0867    4.9230    3.1919 H   0  0  0  0  0  0  0  0  0  0  0  0
    0.3201    4.4003    3.5997 H   0  0  0  0  0  0  0  0  0  0  0  0
   -1.5473    2.3591   -2.9424 H   0  0  0  0  0  0  0  0  0  0  0  0
   -1.8646    5.0273   -2.3210 H   0  0  0  0  0  0  0  0  0  0  0  0
   -0.0901    5.4591   -0.5021 H   0  0  0  0  0  0  0  0  0  0  0  0
    3.0583    0.9182   -1.9521 H   0  0  0  0  0  0  0  0  0  0  0  0
    5.1207   -0.3656   -2.1666 H   0  0  0  0  0  0  0  0  0  0  0  0
    5.6815   -2.1283   -0.5128 H   0  0  0  0  0  0  0  0  0  0  0  0
    4.1201   -2.6052    1.3579 H   0  0  0  0  0  0  0  0  0  0  0  0
    2.0543   -1.3814    1.5976 H   0  0  0  0  0  0  0  0  0  0  0  0
  1  2  1  0
  2  3  1  0
  3  4  1  0
  3  5  1  0
  3  6  1  0
  6  7  1  0
  7  8  2  0
  7  9  1  0
  9 10  1  0
 10 11  2  0
 11 12  1  0
 12 13  2  0
 13 14  1  0
 14 15  2  0
 15 16  1  0
  9 17  1  0
 17 18  1  0
 18 19  2  0
 18 20  1  0
 20 21  1  0
 21 22  2  0
 22 23  1  0
 23 24  1  0
 17 25  1  0
 25 26  2  0
 26 27  1  0
 27 28  2  0
 28 29  1  0
 29 30  2  0
 15 10  1  0
 24 20  2  0
 30 25  1  0
  1 31  1  0
  1 32  1  0
  1 33  1  0
  2 34  1  0
  2 35  1  0
  4 36  1  0
  4 37  1  0
  4 38  1  0
  5 39  1  0
  5 40  1  0
  5 41  1  0
  6 42  1  0
  9 43  1  0
 11 44  1  0
 12 45  1  0
 13 46  1  0
 14 47  1  0
 21 48  1  0
 22 49  1  0
 23 50  1  0
 26 51  1  0
 27 52  1  0
 28 53  1  0
 29 54  1  0
 30 55  1  0
M  END
$$$$
