
     RDKit          3D

 59 62  0  0  0  0  0  0  0  0999 V2000
    4.6338    2.0637   -3.6603 C   0  0  0  0  0  0  0  0  0  0  0  0
    5.3854    1.1089   -2.9256 O   0  0  0  0  0  0  0  0  0  0  0  0
    4.7308    0.3850   -1.9648 C   0  0  0  0  0  0  0  0  0  0  0  0
    3.3619    0.4644   -1.6945 C   0  0  0  0  0  0  0  0  0  0  0  0
    2.7786   -0.3254   -0.6905 C   0  0  0  0  0  0  0  0  0  0  0  0
    1.3868   -0.1734   -0.4848 N   0  0  0  0  0  0  0  0  0  0  0  0
    0.5851   -0.8797    0.3952 C   0  0  0  0  0  0  0  0  0  0  0  0
    0.9274   -1.8054    1.1189 O   0  0  0  0  0  0  0  0  0  0  0  0
   -0.8369   -0.4609    0.4196 C   0  0  0  0  0  0  0  0  0  0  0  0
   -1.2238    0.8806    0.2899 C   0  0  0  0  0  0  0  0  0  0  0  0
   -2.5786    1.2160    0.3389 C   0  0  0  0  0  0  0  0  0  0  0  0
   -3.0303    2.6142    0.2154 C   0  0  0  0  0  0  0  0  0  0  0  0
   -2.5613    3.4545   -0.8090 C   0  0  0  0  0  0  0  0  0  0  0  0
   -3.0009    4.7780   -0.9147 C   0  0  0  0  0  0  0  0  0  0  0  0
   -3.9179    5.2838    0.0016 C   0  0  0  0  0  0  0  0  0  0  0  0
   -4.3988    4.4693    1.0222 C   0  0  0  0  0  0  0  0  0  0  0  0
   -3.9615    3.1461    1.1244 C   0  0  0  0  0  0  0  0  0  0  0  0
   -3.5720    0.3119    0.5137 N   0  0  0  0  0  0  0  0  0  0  0  0
   -3.1528   -0.9603    0.6455 C   0  0  0  0  0  0  0  0  0  0  0  0
   -1.8443   -1.4145    0.6199 C   0  0  0  0  0  0  0  0  0  0  0  0
   -1.9557   -2.8081    0.8157 C   0  0  0  0  0  0  0  0  0  0  0  0
   -3.2230   -3.2162    0.9430 N   0  0  0  0  0  0  0  0  0  0  0  0
   -3.9369   -2.0705    0.8347 N   0  0  0  0  0  0  0  0  0  0  0  0
   -5.3914   -2.0893    0.9394 C   0  0  0  0  0  0  0  0  0  0  0  0
   -6.0232   -3.1084   -0.0097 C   0  0  0  0  0  0  0  0  0  0  0  0
   -5.8333   -2.3265    2.3829 C   0  0  0  0  0  0  0  0  0  0  0  0
    3.5813   -1.2007    0.0469 C   0  0  0  0  0  0  0  0  0  0  0  0
    4.9519   -1.3064   -0.2132 C   0  0  0  0  0  0  0  0  0  0  0  0
    5.8124   -2.1447    0.4516 O   0  0  0  0  0  0  0  0  0  0  0  0
    5.2414   -3.0978    1.3378 C   0  0  0  0  0  0  0  0  0  0  0  0
    5.5195   -0.4967   -1.2093 C   0  0  0  0  0  0  0  0  0  0  0  0
    6.8580   -0.6220   -1.5088 O   0  0  0  0  0  0  0  0  0  0  0  0
    7.6237    0.2536   -0.6830 C   0  0  0  0  0  0  0  0  0  0  0  0
    4.2229    2.8320   -3.0012 H   0  0  0  0  0  0  0  0  0  0  0  0
    3.8437    1.5821   -4.2477 H   0  0  0  0  0  0  0  0  0  0  0  0
    5.3155    2.5564   -4.3580 H   0  0  0  0  0  0  0  0  0  0  0  0
    2.7309    1.1345   -2.2668 H   0  0  0  0  0  0  0  0  0  0  0  0
    0.9235    0.4728   -1.1111 H   0  0  0  0  0  0  0  0  0  0  0  0
   -0.4795    1.6652    0.2018 H   0  0  0  0  0  0  0  0  0  0  0  0
   -1.8625    3.0791   -1.5528 H   0  0  0  0  0  0  0  0  0  0  0  0
   -2.6334    5.4114   -1.7180 H   0  0  0  0  0  0  0  0  0  0  0  0
   -4.2622    6.3116   -0.0816 H   0  0  0  0  0  0  0  0  0  0  0  0
   -5.1188    4.8586    1.7369 H   0  0  0  0  0  0  0  0  0  0  0  0
   -4.3533    2.5197    1.9238 H   0  0  0  0  0  0  0  0  0  0  0  0
   -1.1602   -3.5422    0.8710 H   0  0  0  0  0  0  0  0  0  0  0  0
   -5.7397   -1.0955    0.6356 H   0  0  0  0  0  0  0  0  0  0  0  0
   -7.1139   -3.0142   -0.0028 H   0  0  0  0  0  0  0  0  0  0  0  0
   -5.7742   -4.1366    0.2774 H   0  0  0  0  0  0  0  0  0  0  0  0
   -5.6755   -2.9573   -1.0387 H   0  0  0  0  0  0  0  0  0  0  0  0
   -6.9226   -2.2659    2.4712 H   0  0  0  0  0  0  0  0  0  0  0  0
   -5.5191   -3.3122    2.7414 H   0  0  0  0  0  0  0  0  0  0  0  0
   -5.3986   -1.5772    3.0527 H   0  0  0  0  0  0  0  0  0  0  0  0
    3.1390   -1.8035    0.8283 H   0  0  0  0  0  0  0  0  0  0  0  0
    4.7764   -2.6033    2.1966 H   0  0  0  0  0  0  0  0  0  0  0  0
    4.5298   -3.7478    0.8183 H   0  0  0  0  0  0  0  0  0  0  0  0
    6.0523   -3.7268    1.7187 H   0  0  0  0  0  0  0  0  0  0  0  0
    7.5528   -0.0295    0.3727 H   0  0  0  0  0  0  0  0  0  0  0  0
    8.6716    0.1664   -0.9853 H   0  0  0  0  0  0  0  0  0  0  0  0
    7.3203    1.2987   -0.8151 H   0  0  0  0  0  0  0  0  0  0  0  0
  1  2  1  0
  2  3  1  0
  3  4  2  0
  4  5  1  0
  5  6  1  0
  6  7  1  0
  7  8  2  0
  7  9  1  0
  9 10  2  0
 10 11  1  0
 11 12  1  0
 12 13  2  0
 13 14  1  0
 14 15  2  0
 15 16  1  0
 16 17  2  0
 11 18  2  0
 18 19  1  0
 19 20  2  0
 20 21  1  0
 21 22  2  0
 22 23  1  0
 23 24  1  0
 24 25  1  0
 24 26  1  0
  5 27  2  0
 27 28  1  0
 28 29  1  0
 29 30  1  0
 28 31  2  0
 31 32  1  0
 32 33  1  0
 31  3  1  0
 20  9  1  0
 17 12  1  0
 23 19  1  0
  1 34  1  0
  1 35  1  0
  1 36  1  0
  4 37  1  0
  6 38  1  0
 10 39  1  0
 13 40  1  0
 14 41  1  0
 15 42  1  0
 16 43  1  0
 17 44  1  0
 21 45  1  0
 24 46  1  0
 25 47  1  0
 25 48  1  0
 25 49  1  0
 26 50  1  0
 26 51  1  0
 26 52  1  0
 27 53  1  0
 30 54  1  0
 30 55  1  0
 30 56  1  0
 33 57  1  0
 33 58  1  0
 33 59  1  0
M  END
$$$$
