
     RDKit          3D

 36 37  0  0  0  0  0  0  0  0999 V2000
    3.2766    1.0714   -2.8716 C   0  0  0  0  0  0  0  0  0  0  0  0
    3.0762    0.2253   -1.7242 N   0  0  0  0  0  0  0  0  0  0  0  0
    3.6785    0.4970   -0.5129 C   0  0  0  0  0  0  0  0  0  0  0  0
    4.3980    1.4734   -0.3204 O   0  0  0  0  0  0  0  0  0  0  0  0
    3.4363   -0.5618    0.5664 C   0  0  0  0  0  0  0  0  0  0  0  0
    2.3221   -1.4220    0.3094 O   0  0  0  0  0  0  0  0  0  0  0  0
    1.1141   -0.8948    0.6357 C   0  0  0  0  0  0  0  0  0  0  0  0
    0.9320    0.2213    1.0957 O   0  0  0  0  0  0  0  0  0  0  0  0
    0.0089   -1.8449    0.3115 C   0  0  0  0  0  0  0  0  0  0  0  0
    0.3100   -3.1938    0.0396 C   0  0  0  0  0  0  0  0  0  0  0  0
   -0.7024   -4.0968   -0.2772 C   0  0  0  0  0  0  0  0  0  0  0  0
   -2.0208   -3.6622   -0.3234 C   0  0  0  0  0  0  0  0  0  0  0  0
   -2.3340   -2.3271   -0.0491 C   0  0  0  0  0  0  0  0  0  0  0  0
   -1.3351   -1.3992    0.2752 C   0  0  0  0  0  0  0  0  0  0  0  0
   -1.6356   -0.0452    0.5628 N   0  0  0  0  0  0  0  0  0  0  0  0
   -2.8580    0.6025    0.5570 C   0  0  0  0  0  0  0  0  0  0  0  0
   -3.9341    0.0854    0.2741 O   0  0  0  0  0  0  0  0  0  0  0  0
   -2.7554    2.0046    0.9223 C   0  0  0  0  0  0  0  0  0  0  0  0
   -3.7199    2.9878    1.0424 C   0  0  0  0  0  0  0  0  0  0  0  0
   -3.0489    4.1740    1.4258 C   0  0  0  0  0  0  0  0  0  0  0  0
   -1.7170    3.8471    1.5168 C   0  0  0  0  0  0  0  0  0  0  0  0
   -1.5264    2.5376    1.2145 O   0  0  0  0  0  0  0  0  0  0  0  0
    2.4631    0.8958   -3.5791 H   0  0  0  0  0  0  0  0  0  0  0  0
    4.2319    0.8102   -3.3344 H   0  0  0  0  0  0  0  0  0  0  0  0
    3.2916    2.1229   -2.5730 H   0  0  0  0  0  0  0  0  0  0  0  0
    2.6455   -0.6825   -1.8492 H   0  0  0  0  0  0  0  0  0  0  0  0
    4.3288   -1.1952    0.6062 H   0  0  0  0  0  0  0  0  0  0  0  0
    3.3342   -0.0715    1.5415 H   0  0  0  0  0  0  0  0  0  0  0  0
    1.3331   -3.5607    0.0779 H   0  0  0  0  0  0  0  0  0  0  0  0
   -0.4640   -5.1373   -0.4847 H   0  0  0  0  0  0  0  0  0  0  0  0
   -2.8178   -4.3610   -0.5690 H   0  0  0  0  0  0  0  0  0  0  0  0
   -3.3824   -2.0476   -0.0936 H   0  0  0  0  0  0  0  0  0  0  0  0
   -0.8445    0.5488    0.8312 H   0  0  0  0  0  0  0  0  0  0  0  0
   -4.7789    2.8501    0.8703 H   0  0  0  0  0  0  0  0  0  0  0  0
   -3.4817    5.1468    1.6126 H   0  0  0  0  0  0  0  0  0  0  0  0
   -0.8239    4.4018    1.7710 H   0  0  0  0  0  0  0  0  0  0  0  0
  1  2  1  0
  2  3  1  0
  3  4  2  0
  3  5  1  0
  5  6  1  0
  6  7  1  0
  7  8  2  0
  7  9  1  0
  9 10  2  0
 10 11  1  0
 11 12  2  0
 12 13  1  0
 13 14  2  0
 14 15  1  0
 15 16  1  0
 16 17  2  0
 16 18  1  0
 18 19  2  0
 19 20  1  0
 20 21  2  0
 21 22  1  0
 14  9  1  0
 22 18  1  0
  1 23  1  0
  1 24  1  0
  1 25  1  0
  2 26  1  0
  5 27  1  0
  5 28  1  0
 10 29  1  0
 11 30  1  0
 12 31  1  0
 13 32  1  0
 15 33  1  0
 19 34  1  0
 20 35  1  0
 21 36  1  0
M  END
$$$$
