
     RDKit          3D

 29 31  0  0  0  0  0  0  0  0999 V2000
   -1.5836    0.9533   -3.8465 O   0  0  0  0  0  0  0  0  0  0  0  0
   -2.5346    0.5622   -3.1897 C   0  0  0  0  0  0  0  0  0  0  0  0
   -3.8247    0.5368   -3.6384 N   0  0  0  0  0  0  0  0  0  0  0  0
   -4.7865    0.0759   -2.7950 C   0  0  0  0  0  0  0  0  0  0  0  0
   -6.3908   -0.0144   -3.1905 S   0  0  0  0  0  0  0  0  0  0  0  0
   -4.0619   -0.3861   -1.2735 S   0  0  0  0  0  0  0  0  0  0  0  0
   -2.4750    0.0480   -1.7918 C   0  0  0  0  0  0  0  0  0  0  0  0
   -1.2991   -0.0432   -1.1596 C   0  0  0  0  0  0  0  0  0  0  0  0
   -1.0668   -0.5212    0.1601 C   0  0  0  0  0  0  0  0  0  0  0  0
   -1.8660   -0.6010    1.2943 C   0  0  0  0  0  0  0  0  0  0  0  0
   -1.0862   -1.1451    2.3445 C   0  0  0  0  0  0  0  0  0  0  0  0
    0.1687   -1.3622    1.8272 C   0  0  0  0  0  0  0  0  0  0  0  0
    1.5645   -2.0083    2.6450 S   0  0  0  0  0  0  0  0  0  0  0  0
    2.8954   -1.5649    1.4895 C   0  0  0  0  0  0  0  0  0  0  0  0
    3.2150   -0.1142    1.5224 C   0  0  0  0  0  0  0  0  0  0  0  0
    3.6557    0.7454    2.5096 C   0  0  0  0  0  0  0  0  0  0  0  0
    3.7848    2.0187    1.9048 C   0  0  0  0  0  0  0  0  0  0  0  0
    3.4245    1.8555    0.5884 C   0  0  0  0  0  0  0  0  0  0  0  0
    3.0844    0.5646    0.3448 O   0  0  0  0  0  0  0  0  0  0  0  0
    0.1777   -0.9933    0.5186 O   0  0  0  0  0  0  0  0  0  0  0  0
   -4.0423    0.8533   -4.5712 H   0  0  0  0  0  0  0  0  0  0  0  0
   -0.3975    0.2439   -1.7002 H   0  0  0  0  0  0  0  0  0  0  0  0
   -2.8970   -0.2886    1.3763 H   0  0  0  0  0  0  0  0  0  0  0  0
   -1.3990   -1.3400    3.3606 H   0  0  0  0  0  0  0  0  0  0  0  0
    2.6391   -1.8957    0.4774 H   0  0  0  0  0  0  0  0  0  0  0  0
    3.7879   -2.1266    1.7862 H   0  0  0  0  0  0  0  0  0  0  0  0
    3.8514    0.4830    3.5401 H   0  0  0  0  0  0  0  0  0  0  0  0
    4.1009    2.9417    2.3696 H   0  0  0  0  0  0  0  0  0  0  0  0
    3.3611    2.5226   -0.2599 H   0  0  0  0  0  0  0  0  0  0  0  0
  1  2  2  0
  2  3  1  0
  3  4  1  0
  4  5  2  0
  4  6  1  0
  6  7  1  0
  7  8  2  3
  8  9  1  0
  9 10  2  0
 10 11  1  0
 11 12  2  0
 12 13  1  0
 13 14  1  0
 14 15  1  0
 15 16  2  0
 16 17  1  0
 17 18  2  0
 18 19  1  0
 12 20  1  0
  7  2  1  0
 20  9  1  0
 19 15  1  0
  3 21  1  0
  8 22  1  0
 10 23  1  0
 11 24  1  0
 14 25  1  0
 14 26  1  0
 16 27  1  0
 17 28  1  0
 18 29  1  0
M  END
$$$$
