
     RDKit          3D

 44 46  0  0  0  0  0  0  0  0999 V2000
    7.5191    1.4473   -1.3223 C   0  0  0  0  0  0  0  0  0  0  0  0
    7.3433    0.1702   -0.7193 O   0  0  0  0  0  0  0  0  0  0  0  0
    6.1437   -0.0657   -0.1063 C   0  0  0  0  0  0  0  0  0  0  0  0
    5.0688    0.8220   -0.0386 C   0  0  0  0  0  0  0  0  0  0  0  0
    3.8891    0.4456    0.6107 C   0  0  0  0  0  0  0  0  0  0  0  0
    3.7722   -0.8237    1.1804 C   0  0  0  0  0  0  0  0  0  0  0  0
    2.5798   -1.0976    1.7979 O   0  0  0  0  0  0  0  0  0  0  0  0
    1.8509   -2.1491    1.1505 C   0  0  0  0  0  0  0  0  0  0  0  0
    0.4976   -1.6235    0.8567 C   0  0  0  0  0  0  0  0  0  0  0  0
    0.0193   -0.5285    0.1805 C   0  0  0  0  0  0  0  0  0  0  0  0
   -1.3958   -0.6475    0.2428 C   0  0  0  0  0  0  0  0  0  0  0  0
   -2.3591    0.3261   -0.2967 C   0  0  0  0  0  0  0  0  0  0  0  0
   -1.9974    1.4933   -0.4622 O   0  0  0  0  0  0  0  0  0  0  0  0
   -3.6771   -0.0656   -0.6174 N   0  0  0  0  0  0  0  0  0  0  0  0
   -4.1285   -1.4522   -0.6195 C   0  0  0  0  0  0  0  0  0  0  0  0
   -4.6613    1.0157   -0.7465 C   0  0  0  0  0  0  0  0  0  0  0  0
   -5.0753    1.6084    0.5902 C   0  0  0  0  0  0  0  0  0  0  0  0
   -6.2977    2.4170    0.2092 C   0  0  0  0  0  0  0  0  0  0  0  0
   -6.9138    1.7567   -0.9068 O   0  0  0  0  0  0  0  0  0  0  0  0
   -6.0315    0.7096   -1.3484 C   0  0  0  0  0  0  0  0  0  0  0  0
   -1.7354   -1.7435    0.9438 N   0  0  0  0  0  0  0  0  0  0  0  0
   -0.5529   -2.3564    1.3078 O   0  0  0  0  0  0  0  0  0  0  0  0
    4.8613   -1.7014    1.1493 C   0  0  0  0  0  0  0  0  0  0  0  0
    4.8207   -3.2468    1.9187 Cl  0  0  0  0  0  0  0  0  0  0  0  0
    6.0363   -1.3229    0.4959 C   0  0  0  0  0  0  0  0  0  0  0  0
    6.7882    1.6125   -2.1223 H   0  0  0  0  0  0  0  0  0  0  0  0
    7.4727    2.2457   -0.5729 H   0  0  0  0  0  0  0  0  0  0  0  0
    8.5160    1.4679   -1.7728 H   0  0  0  0  0  0  0  0  0  0  0  0
    5.1159    1.8126   -0.4769 H   0  0  0  0  0  0  0  0  0  0  0  0
    3.0559    1.1432    0.6650 H   0  0  0  0  0  0  0  0  0  0  0  0
    1.7930   -2.9988    1.8397 H   0  0  0  0  0  0  0  0  0  0  0  0
    2.3149   -2.4870    0.2133 H   0  0  0  0  0  0  0  0  0  0  0  0
    0.5916    0.2572   -0.2918 H   0  0  0  0  0  0  0  0  0  0  0  0
   -3.3106   -2.1363   -0.8487 H   0  0  0  0  0  0  0  0  0  0  0  0
   -4.8685   -1.6045   -1.4073 H   0  0  0  0  0  0  0  0  0  0  0  0
   -4.5601   -1.6868    0.3550 H   0  0  0  0  0  0  0  0  0  0  0  0
   -4.2051    1.8180   -1.3435 H   0  0  0  0  0  0  0  0  0  0  0  0
   -4.3020    2.2166    1.0673 H   0  0  0  0  0  0  0  0  0  0  0  0
   -5.3545    0.8111    1.2906 H   0  0  0  0  0  0  0  0  0  0  0  0
   -7.0154    2.4990    1.0302 H   0  0  0  0  0  0  0  0  0  0  0  0
   -6.0191    3.4274   -0.1124 H   0  0  0  0  0  0  0  0  0  0  0  0
   -6.4622   -0.2258   -0.9793 H   0  0  0  0  0  0  0  0  0  0  0  0
   -6.0114    0.6786   -2.4415 H   0  0  0  0  0  0  0  0  0  0  0  0
    6.8845   -2.0033    0.4576 H   0  0  0  0  0  0  0  0  0  0  0  0
  1  2  1  0
  2  3  1  0
  3  4  2  0
  4  5  1  0
  5  6  2  0
  6  7  1  0
  7  8  1  0
  8  9  1  0
  9 10  2  0
 10 11  1  0
 11 12  1  0
 12 13  2  0
 12 14  1  0
 14 15  1  0
 14 16  1  0
 16 17  1  0
 17 18  1  0
 18 19  1  0
 19 20  1  0
 11 21  2  0
 21 22  1  0
  6 23  1  0
 23 24  1  0
 23 25  2  0
 25  3  1  0
 22  9  1  0
 20 16  1  0
  1 26  1  0
  1 27  1  0
  1 28  1  0
  4 29  1  0
  5 30  1  0
  8 31  1  0
  8 32  1  0
 10 33  1  0
 15 34  1  0
 15 35  1  0
 15 36  1  0
 16 37  1  0
 17 38  1  0
 17 39  1  0
 18 40  1  0
 18 41  1  0
 20 42  1  0
 20 43  1  0
 25 44  1  0
M  END
$$$$
