
     RDKit          3D

 53 56  0  0  0  0  0  0  0  0999 V2000
    6.9102   -0.3315   -1.4979 C   0  0  0  0  0  0  0  0  0  0  0  0
    6.0789    0.2938   -0.5284 O   0  0  0  0  0  0  0  0  0  0  0  0
    5.6048   -0.6069    0.4760 C   0  0  0  0  0  0  0  0  0  0  0  0
    4.3479   -1.3686    0.0508 C   0  0  0  0  0  0  0  0  0  0  0  0
    3.1279   -0.5739    0.1847 N   0  0  0  0  0  0  0  0  0  0  0  0
    2.3446   -0.5364    1.3214 C   0  0  0  0  0  0  0  0  0  0  0  0
    2.6520   -1.2840    2.5721 C   0  0  0  0  0  0  0  0  0  0  0  0
    1.2762    0.2953    1.0588 C   0  0  0  0  0  0  0  0  0  0  0  0
    1.3872    0.7815   -0.2733 C   0  0  0  0  0  0  0  0  0  0  0  0
    0.4780    1.6943   -0.9981 C   0  0  0  0  0  0  0  0  0  0  0  0
    0.6636    1.9719   -2.1866 O   0  0  0  0  0  0  0  0  0  0  0  0
   -0.6579    2.3595   -0.2335 C   0  0  0  0  0  0  0  0  0  0  0  0
   -2.2754    2.1018   -1.0297 S   0  0  0  0  0  0  0  0  0  0  0  0
   -2.6015    0.4525   -0.4891 C   0  0  0  0  0  0  0  0  0  0  0  0
   -1.6383   -0.4772   -0.6309 N   0  0  0  0  0  0  0  0  0  0  0  0
   -1.8755   -1.7316   -0.2079 C   0  0  0  0  0  0  0  0  0  0  0  0
   -0.8003   -2.7452   -0.4513 C   0  0  0  0  0  0  0  0  0  0  0  0
   -3.0020   -2.1667    0.3698 N   0  0  0  0  0  0  0  0  0  0  0  0
   -3.9370   -1.2114    0.4987 C   0  0  0  0  0  0  0  0  0  0  0  0
   -5.4503   -1.5767    1.2349 S   0  0  0  0  0  0  0  0  0  0  0  0
   -5.9597   -0.0030    1.0085 C   0  0  0  0  0  0  0  0  0  0  0  0
   -5.0404    0.8027    0.3922 C   0  0  0  0  0  0  0  0  0  0  0  0
   -3.8288    0.1182    0.0897 C   0  0  0  0  0  0  0  0  0  0  0  0
   -5.5804    2.1767    0.2172 C   0  0  0  0  0  0  0  0  0  0  0  0
   -7.1036    1.9735    0.4962 C   0  0  0  0  0  0  0  0  0  0  0  0
   -7.2328    0.6749    1.3475 C   0  0  0  0  0  0  0  0  0  0  0  0
    2.5515    0.2147   -0.7951 C   0  0  0  0  0  0  0  0  0  0  0  0
    3.1296    0.4065   -2.1605 C   0  0  0  0  0  0  0  0  0  0  0  0
    7.2042    0.4229   -2.2339 H   0  0  0  0  0  0  0  0  0  0  0  0
    7.8159   -0.7263   -1.0261 H   0  0  0  0  0  0  0  0  0  0  0  0
    6.3774   -1.1339   -2.0156 H   0  0  0  0  0  0  0  0  0  0  0  0
    6.4018   -1.3151    0.7353 H   0  0  0  0  0  0  0  0  0  0  0  0
    5.4040   -0.0097    1.3723 H   0  0  0  0  0  0  0  0  0  0  0  0
    4.4036   -1.7390   -0.9761 H   0  0  0  0  0  0  0  0  0  0  0  0
    4.2239   -2.2510    0.6887 H   0  0  0  0  0  0  0  0  0  0  0  0
    1.9349   -1.0319    3.3621 H   0  0  0  0  0  0  0  0  0  0  0  0
    2.5936   -2.3649    2.4013 H   0  0  0  0  0  0  0  0  0  0  0  0
    3.6528   -1.0363    2.9403 H   0  0  0  0  0  0  0  0  0  0  0  0
    0.4883    0.5055    1.7693 H   0  0  0  0  0  0  0  0  0  0  0  0
   -0.7159    2.0440    0.8090 H   0  0  0  0  0  0  0  0  0  0  0  0
   -0.4490    3.4353   -0.2229 H   0  0  0  0  0  0  0  0  0  0  0  0
   -0.8183   -3.5207    0.3225 H   0  0  0  0  0  0  0  0  0  0  0  0
   -0.9550   -3.2177   -1.4267 H   0  0  0  0  0  0  0  0  0  0  0  0
    0.1872   -2.2761   -0.4431 H   0  0  0  0  0  0  0  0  0  0  0  0
   -5.1453    2.8591    0.9548 H   0  0  0  0  0  0  0  0  0  0  0  0
   -5.4224    2.5752   -0.7888 H   0  0  0  0  0  0  0  0  0  0  0  0
   -7.5603    2.8418    0.9805 H   0  0  0  0  0  0  0  0  0  0  0  0
   -7.6200    1.8217   -0.4605 H   0  0  0  0  0  0  0  0  0  0  0  0
   -8.1200    0.1025    1.0657 H   0  0  0  0  0  0  0  0  0  0  0  0
   -7.2714    0.9158    2.4157 H   0  0  0  0  0  0  0  0  0  0  0  0
    4.0216   -0.1918   -2.3497 H   0  0  0  0  0  0  0  0  0  0  0  0
    3.4045    1.4570   -2.3079 H   0  0  0  0  0  0  0  0  0  0  0  0
    2.3956    0.1287   -2.9232 H   0  0  0  0  0  0  0  0  0  0  0  0
  1  2  1  0
  2  3  1  0
  3  4  1  0
  4  5  1  0
  5  6  1  0
  6  7  1  0
  6  8  2  0
  8  9  1  0
  9 10  1  0
 10 11  2  0
 10 12  1  0
 12 13  1  0
 13 14  1  0
 14 15  2  0
 15 16  1  0
 16 17  1  0
 16 18  2  0
 18 19  1  0
 19 20  1  0
 20 21  1  0
 21 22  2  0
 22 23  1  0
 22 24  1  0
 24 25  1  0
 25 26  1  0
  9 27  2  0
 27 28  1  0
 27  5  1  0
 23 14  1  0
 23 19  2  0
 26 21  1  0
  1 29  1  0
  1 30  1  0
  1 31  1  0
  3 32  1  0
  3 33  1  0
  4 34  1  0
  4 35  1  0
  7 36  1  0
  7 37  1  0
  7 38  1  0
  8 39  1  0
 12 40  1  0
 12 41  1  0
 17 42  1  0
 17 43  1  0
 17 44  1  0
 24 45  1  0
 24 46  1  0
 25 47  1  0
 25 48  1  0
 26 49  1  0
 26 50  1  0
 28 51  1  0
 28 52  1  0
 28 53  1  0
M  END
$$$$
