
     RDKit          3D

 49 51  0  0  0  0  0  0  0  0999 V2000
   -1.1577    1.4239    2.2334 O   0  0  0  0  0  0  0  0  0  0  0  0
   -0.7336    0.9693    1.1768 C   0  0  0  0  0  0  0  0  0  0  0  0
   -1.6398    0.3090    0.1516 C   0  0  0  0  0  0  0  0  0  0  0  0
   -3.1119    0.4096    0.5579 C   0  0  0  0  0  0  0  0  0  0  0  0
   -4.0221   -0.1500   -0.4587 N   0  0  0  0  0  0  0  0  0  0  0  0
   -5.4176    0.1777   -0.1564 C   0  0  0  0  0  0  0  0  0  0  0  0
   -6.3152   -0.1580   -1.3533 C   0  0  0  0  0  0  0  0  0  0  0  0
   -5.9120   -1.4487   -2.0685 C   0  0  0  0  0  0  0  0  0  0  0  0
   -5.0785   -2.3371   -1.1584 C   0  0  0  0  0  0  0  0  0  0  0  0
   -3.8338   -1.6002   -0.6431 C   0  0  0  0  0  0  0  0  0  0  0  0
    0.5877    0.9518    0.7686 N   0  0  0  0  0  0  0  0  0  0  0  0
    1.7203    1.5100    1.4093 C   0  0  0  0  0  0  0  0  0  0  0  0
    1.6194    2.2720    2.5792 C   0  0  0  0  0  0  0  0  0  0  0  0
    2.7535    2.8470    3.1620 C   0  0  0  0  0  0  0  0  0  0  0  0
    4.0006    2.6724    2.5736 C   0  0  0  0  0  0  0  0  0  0  0  0
    5.5269    3.4706    3.3513 Br  0  0  0  0  0  0  0  0  0  0  0  0
    4.1332    1.9127    1.4150 C   0  0  0  0  0  0  0  0  0  0  0  0
    3.0018    1.3081    0.8425 C   0  0  0  0  0  0  0  0  0  0  0  0
    3.1626    0.4657   -0.3797 C   0  0  0  0  0  0  0  0  0  0  0  0
    2.2479    0.4071   -1.2004 O   0  0  0  0  0  0  0  0  0  0  0  0
    4.3885   -0.3326   -0.6240 C   0  0  0  0  0  0  0  0  0  0  0  0
    4.8733   -0.4269   -1.9332 C   0  0  0  0  0  0  0  0  0  0  0  0
    6.0178   -1.1792   -2.1997 C   0  0  0  0  0  0  0  0  0  0  0  0
    6.6697   -1.8477   -1.1634 C   0  0  0  0  0  0  0  0  0  0  0  0
    6.1748   -1.7743    0.1391 C   0  0  0  0  0  0  0  0  0  0  0  0
    5.0300   -1.0231    0.4115 C   0  0  0  0  0  0  0  0  0  0  0  0
   -1.3304   -0.7385    0.0618 H   0  0  0  0  0  0  0  0  0  0  0  0
   -1.4857    0.8016   -0.8162 H   0  0  0  0  0  0  0  0  0  0  0  0
   -3.3465    1.4734    0.6973 H   0  0  0  0  0  0  0  0  0  0  0  0
   -3.2745   -0.0754    1.5296 H   0  0  0  0  0  0  0  0  0  0  0  0
   -5.7580   -0.3592    0.7388 H   0  0  0  0  0  0  0  0  0  0  0  0
   -5.5319    1.2481    0.0551 H   0  0  0  0  0  0  0  0  0  0  0  0
   -7.3506   -0.2408   -1.0010 H   0  0  0  0  0  0  0  0  0  0  0  0
   -6.2994    0.6654   -2.0782 H   0  0  0  0  0  0  0  0  0  0  0  0
   -6.8046   -1.9807   -2.4159 H   0  0  0  0  0  0  0  0  0  0  0  0
   -5.3271   -1.2001   -2.9632 H   0  0  0  0  0  0  0  0  0  0  0  0
   -5.6939   -2.6564   -0.3075 H   0  0  0  0  0  0  0  0  0  0  0  0
   -4.7765   -3.2464   -1.6901 H   0  0  0  0  0  0  0  0  0  0  0  0
   -3.0199   -1.7465   -1.3634 H   0  0  0  0  0  0  0  0  0  0  0  0
   -3.5262   -2.0870    0.2914 H   0  0  0  0  0  0  0  0  0  0  0  0
    0.7814    0.5275   -0.1431 H   0  0  0  0  0  0  0  0  0  0  0  0
    0.6627    2.4556    3.0597 H   0  0  0  0  0  0  0  0  0  0  0  0
    2.6420    3.4396    4.0672 H   0  0  0  0  0  0  0  0  0  0  0  0
    5.1141    1.8049    0.9591 H   0  0  0  0  0  0  0  0  0  0  0  0
    4.3613    0.0838   -2.7463 H   0  0  0  0  0  0  0  0  0  0  0  0
    6.3971   -1.2491   -3.2164 H   0  0  0  0  0  0  0  0  0  0  0  0
    7.5594   -2.4369   -1.3738 H   0  0  0  0  0  0  0  0  0  0  0  0
    6.6772   -2.3113    0.9404 H   0  0  0  0  0  0  0  0  0  0  0  0
    4.6439   -1.0008    1.4274 H   0  0  0  0  0  0  0  0  0  0  0  0
  1  2  2  0
  2  3  1  0
  3  4  1  0
  4  5  1  0
  5  6  1  0
  6  7  1  0
  7  8  1  0
  8  9  1  0
  9 10  1  0
  2 11  1  0
 11 12  1  0
 12 13  2  0
 13 14  1  0
 14 15  2  0
 15 16  1  0
 15 17  1  0
 17 18  2  0
 18 19  1  0
 19 20  2  0
 19 21  1  0
 21 22  2  0
 22 23  1  0
 23 24  2  0
 24 25  1  0
 25 26  2  0
 10  5  1  0
 18 12  1  0
 26 21  1  0
  3 27  1  0
  3 28  1  0
  4 29  1  0
  4 30  1  0
  6 31  1  0
  6 32  1  0
  7 33  1  0
  7 34  1  0
  8 35  1  0
  8 36  1  0
  9 37  1  0
  9 38  1  0
 10 39  1  0
 10 40  1  0
 11 41  1  0
 13 42  1  0
 14 43  1  0
 17 44  1  0
 22 45  1  0
 23 46  1  0
 24 47  1  0
 25 48  1  0
 26 49  1  0
M  END
$$$$
