
     RDKit          3D

 57 59  0  0  0  0  0  0  0  0999 V2000
   -7.7217   -1.0210    2.6489 C   0  0  0  0  0  0  0  0  0  0  0  0
   -6.6280   -0.9592    1.6225 C   0  0  0  0  0  0  0  0  0  0  0  0
   -6.5302    0.1453    0.7646 C   0  0  0  0  0  0  0  0  0  0  0  0
   -5.5400    0.1925   -0.2180 C   0  0  0  0  0  0  0  0  0  0  0  0
   -4.6370   -0.8672   -0.3392 C   0  0  0  0  0  0  0  0  0  0  0  0
   -3.3996   -0.8241   -1.6203 S   0  0  0  0  0  6  0  0  0  0  0  0
   -3.9074    0.0209   -2.6806 O   0  0  0  0  0  0  0  0  0  0  0  0
   -2.9913   -2.1883   -1.8816 O   0  0  0  0  0  0  0  0  0  0  0  0
   -2.1004   -0.0177   -0.8776 N   0  0  0  0  0  0  0  0  0  0  0  0
   -1.2965   -0.7943    0.0945 C   0  0  0  0  0  0  0  0  0  0  0  0
   -0.4431    0.1155    0.9810 C   0  0  0  0  0  0  0  0  0  0  0  0
    0.1730    1.2871    0.2067 C   0  0  0  0  0  0  0  0  0  0  0  0
    1.3164    0.8099   -0.6889 C   0  0  0  0  0  0  0  0  0  0  0  0
    1.6945   -0.3577   -0.7501 O   0  0  0  0  0  0  0  0  0  0  0  0
    1.9648    1.8151   -1.3699 N   0  0  0  0  0  0  0  0  0  0  0  0
    3.1079    1.5424   -2.2448 C   0  0  0  0  0  0  0  0  0  0  0  0
    3.2323    2.6439   -3.2906 C   0  0  0  0  0  0  0  0  0  0  0  0
    4.4029    1.4102   -1.4044 C   0  0  0  0  0  0  0  0  0  0  0  0
    5.2942    2.2536   -1.4501 O   0  0  0  0  0  0  0  0  0  0  0  0
    4.4020    0.2640   -0.6239 N   0  0  0  0  0  0  0  0  0  0  0  0
    5.4000   -0.1917    0.2561 C   0  0  0  0  0  0  0  0  0  0  0  0
    6.6264    0.4504    0.4486 C   0  0  0  0  0  0  0  0  0  0  0  0
    7.5634   -0.0730    1.3454 C   0  0  0  0  0  0  0  0  0  0  0  0
    7.2727   -1.2363    2.0460 C   0  0  0  0  0  0  0  0  0  0  0  0
    8.1714   -1.7343    2.9047 F   0  0  0  0  0  0  0  0  0  0  0  0
    6.0609   -1.8891    1.8672 C   0  0  0  0  0  0  0  0  0  0  0  0
    5.1250   -1.3669    0.9715 C   0  0  0  0  0  0  0  0  0  0  0  0
   -0.8906    2.0697   -0.5868 C   0  0  0  0  0  0  0  0  0  0  0  0
   -2.2664    1.4074   -0.5599 C   0  0  0  0  0  0  0  0  0  0  0  0
   -4.7466   -1.9902    0.4848 C   0  0  0  0  0  0  0  0  0  0  0  0
   -5.7394   -2.0314    1.4657 C   0  0  0  0  0  0  0  0  0  0  0  0
   -8.6486   -1.3747    2.1866 H   0  0  0  0  0  0  0  0  0  0  0  0
   -7.4564   -1.6993    3.4672 H   0  0  0  0  0  0  0  0  0  0  0  0
   -7.8956   -0.0328    3.0887 H   0  0  0  0  0  0  0  0  0  0  0  0
   -7.2361    0.9692    0.8495 H   0  0  0  0  0  0  0  0  0  0  0  0
   -5.4893    1.0463   -0.8897 H   0  0  0  0  0  0  0  0  0  0  0  0
   -1.9374   -1.4011    0.7406 H   0  0  0  0  0  0  0  0  0  0  0  0
   -0.6512   -1.4776   -0.4682 H   0  0  0  0  0  0  0  0  0  0  0  0
    0.3308   -0.4823    1.4775 H   0  0  0  0  0  0  0  0  0  0  0  0
   -1.0719    0.5204    1.7854 H   0  0  0  0  0  0  0  0  0  0  0  0
    0.6355    1.9639    0.9386 H   0  0  0  0  0  0  0  0  0  0  0  0
    1.8491    2.7677   -1.0446 H   0  0  0  0  0  0  0  0  0  0  0  0
    2.9407    0.5872   -2.7584 H   0  0  0  0  0  0  0  0  0  0  0  0
    3.3779    3.6252   -2.8244 H   0  0  0  0  0  0  0  0  0  0  0  0
    4.0837    2.4590   -3.9535 H   0  0  0  0  0  0  0  0  0  0  0  0
    2.3265    2.7008   -3.9036 H   0  0  0  0  0  0  0  0  0  0  0  0
    3.5488   -0.2978   -0.6721 H   0  0  0  0  0  0  0  0  0  0  0  0
    6.8873    1.3580   -0.0859 H   0  0  0  0  0  0  0  0  0  0  0  0
    8.5168    0.4238    1.4958 H   0  0  0  0  0  0  0  0  0  0  0  0
    5.8515   -2.7980    2.4218 H   0  0  0  0  0  0  0  0  0  0  0  0
    4.1794   -1.8885    0.8392 H   0  0  0  0  0  0  0  0  0  0  0  0
   -0.5888    2.1960   -1.6341 H   0  0  0  0  0  0  0  0  0  0  0  0
   -0.9824    3.0812   -0.1719 H   0  0  0  0  0  0  0  0  0  0  0  0
   -2.9041    1.9103   -1.2938 H   0  0  0  0  0  0  0  0  0  0  0  0
   -2.7382    1.5258    0.4224 H   0  0  0  0  0  0  0  0  0  0  0  0
   -4.0746   -2.8367    0.3647 H   0  0  0  0  0  0  0  0  0  0  0  0
   -5.8233   -2.9117    2.1004 H   0  0  0  0  0  0  0  0  0  0  0  0
  1  2  1  0
  2  3  2  0
  3  4  1  0
  4  5  2  0
  5  6  1  0
  6  7  2  0
  6  8  2  0
  6  9  1  0
  9 10  1  0
 10 11  1  0
 11 12  1  0
 12 13  1  0
 13 14  2  0
 13 15  1  0
 15 16  1  0
 16 17  1  0
 16 18  1  0
 18 19  2  0
 18 20  1  0
 20 21  1  0
 21 22  2  0
 22 23  1  0
 23 24  2  0
 24 25  1  0
 24 26  1  0
 26 27  2  0
 12 28  1  0
 28 29  1  0
  5 30  1  0
 30 31  2  0
 31  2  1  0
 29  9  1  0
 27 21  1  0
  1 32  1  0
  1 33  1  0
  1 34  1  0
  3 35  1  0
  4 36  1  0
 10 37  1  0
 10 38  1  0
 11 39  1  0
 11 40  1  0
 12 41  1  0
 15 42  1  0
 16 43  1  0
 17 44  1  0
 17 45  1  0
 17 46  1  0
 20 47  1  0
 22 48  1  0
 23 49  1  0
 26 50  1  0
 27 51  1  0
 28 52  1  0
 28 53  1  0
 29 54  1  0
 29 55  1  0
 30 56  1  0
 31 57  1  0
M  END
$$$$
