
     RDKit          3D

 46 49  0  0  0  0  0  0  0  0999 V2000
   -5.7991    1.1506    0.7835 C   0  0  0  0  0  0  0  0  0  0  0  0
   -4.3496    0.6885    0.7487 C   0  0  0  0  0  0  0  0  0  0  0  0
   -3.9124    0.1157   -0.6178 C   0  0  0  0  0  0  0  0  0  0  0  0
   -4.6830   -1.1429   -1.0465 C   0  0  0  0  0  0  0  0  0  0  0  0
   -4.2758   -2.3747   -0.2479 C   0  0  0  0  0  0  0  0  0  0  0  0
   -2.7742   -2.5922   -0.3676 C   0  0  0  0  0  0  0  0  0  0  0  0
   -1.9855   -1.3537    0.0459 C   0  0  0  0  0  0  0  0  0  0  0  0
   -2.4555   -0.1319   -0.6165 N   0  0  0  0  0  0  0  0  0  0  0  0
   -1.6162    0.9446   -0.9632 C   0  0  0  0  0  0  0  0  0  0  0  0
   -2.0705    1.9547   -1.5010 O   0  0  0  0  0  0  0  0  0  0  0  0
   -0.2033    0.8366   -0.6460 C   0  0  0  0  0  0  0  0  0  0  0  0
    0.4080    0.7060    0.5864 C   0  0  0  0  0  0  0  0  0  0  0  0
    1.8285    0.6543    0.4698 C   0  0  0  0  0  0  0  0  0  0  0  0
    2.8249    0.5105    1.5104 C   0  0  0  0  0  0  0  0  0  0  0  0
    2.4960    0.3908    2.6896 O   0  0  0  0  0  0  0  0  0  0  0  0
    4.1513    0.5128    1.0444 N   0  0  0  0  0  0  0  0  0  0  0  0
    5.1757    0.3855    1.9767 C   0  0  0  0  0  0  0  0  0  0  0  0
    6.4634    0.3736    1.6191 C   0  0  0  0  0  0  0  0  0  0  0  0
    6.8261    0.4940    0.2351 C   0  0  0  0  0  0  0  0  0  0  0  0
    5.8927    0.6199   -0.7205 C   0  0  0  0  0  0  0  0  0  0  0  0
    6.2199    0.7501   -2.1756 C   0  0  0  0  0  0  0  0  0  0  0  0
    4.4376    0.6347   -0.3293 C   0  0  0  0  0  0  0  0  0  0  0  0
    3.5345    0.7558   -1.2617 N   0  0  0  0  0  0  0  0  0  0  0  0
    2.2532    0.7671   -0.8305 C   0  0  0  0  0  0  0  0  0  0  0  0
    0.9455    0.9426   -1.9116 S   0  0  0  0  0  0  0  0  0  0  0  0
   -6.4923    0.3089    0.7017 H   0  0  0  0  0  0  0  0  0  0  0  0
   -6.0077    1.6561    1.7320 H   0  0  0  0  0  0  0  0  0  0  0  0
   -6.0077    1.8552   -0.0276 H   0  0  0  0  0  0  0  0  0  0  0  0
   -4.1875   -0.0435    1.5480 H   0  0  0  0  0  0  0  0  0  0  0  0
   -3.7140    1.5489    0.9946 H   0  0  0  0  0  0  0  0  0  0  0  0
   -4.1297    0.8839   -1.3707 H   0  0  0  0  0  0  0  0  0  0  0  0
   -5.7646   -0.9915   -0.9765 H   0  0  0  0  0  0  0  0  0  0  0  0
   -4.4715   -1.3347   -2.1073 H   0  0  0  0  0  0  0  0  0  0  0  0
   -4.5587   -2.2606    0.8045 H   0  0  0  0  0  0  0  0  0  0  0  0
   -4.8070   -3.2544   -0.6284 H   0  0  0  0  0  0  0  0  0  0  0  0
   -2.5314   -2.8412   -1.4086 H   0  0  0  0  0  0  0  0  0  0  0  0
   -2.4694   -3.4480    0.2448 H   0  0  0  0  0  0  0  0  0  0  0  0
   -2.0671   -1.1936    1.1271 H   0  0  0  0  0  0  0  0  0  0  0  0
   -0.9323   -1.5363   -0.1833 H   0  0  0  0  0  0  0  0  0  0  0  0
   -0.1313    0.6550    1.5254 H   0  0  0  0  0  0  0  0  0  0  0  0
    4.8871    0.2956    3.0214 H   0  0  0  0  0  0  0  0  0  0  0  0
    7.2511    0.2743    2.3593 H   0  0  0  0  0  0  0  0  0  0  0  0
    7.8844    0.4805   -0.0095 H   0  0  0  0  0  0  0  0  0  0  0  0
    7.3007    0.7293   -2.3521 H   0  0  0  0  0  0  0  0  0  0  0  0
    5.7773   -0.0736   -2.7452 H   0  0  0  0  0  0  0  0  0  0  0  0
    5.8395    1.6968   -2.5729 H   0  0  0  0  0  0  0  0  0  0  0  0
  1  2  1  0
  2  3  1  0
  3  4  1  0
  4  5  1  0
  5  6  1  0
  6  7  1  0
  7  8  1  0
  8  9  1  0
  9 10  2  0
  9 11  1  0
 11 12  2  0
 12 13  1  0
 13 14  1  0
 14 15  2  0
 14 16  1  0
 16 17  1  0
 17 18  2  0
 18 19  1  0
 19 20  2  0
 20 21  1  0
 20 22  1  0
 22 23  2  0
 23 24  1  0
 24 25  1  0
  8  3  1  0
 25 11  1  0
 24 13  2  0
 22 16  1  0
  1 26  1  0
  1 27  1  0
  1 28  1  0
  2 29  1  0
  2 30  1  0
  3 31  1  0
  4 32  1  0
  4 33  1  0
  5 34  1  0
  5 35  1  0
  6 36  1  0
  6 37  1  0
  7 38  1  0
  7 39  1  0
 12 40  1  0
 17 41  1  0
 18 42  1  0
 19 43  1  0
 21 44  1  0
 21 45  1  0
 21 46  1  0
M  END
$$$$
