
     RDKit          3D

 26 28  0  0  0  0  0  0  0  0999 V2000
   -1.1975   -1.8962   -4.2344 N   0  0  0  0  0  0  0  0  0  0  0  0
   -0.6171   -1.4303   -3.3435 C   0  0  0  0  0  0  0  0  0  0  0  0
    0.1188   -0.8417   -2.2721 C   0  0  0  0  0  0  0  0  0  0  0  0
    1.4388   -0.6248   -2.4297 C   0  0  0  0  0  0  0  0  0  0  0  0
    2.3269   -0.0468   -1.4786 C   0  0  0  0  0  0  0  0  0  0  0  0
    2.3838   -0.1115   -0.0895 C   0  0  0  0  0  0  0  0  0  0  0  0
    3.4975    0.6481    0.3427 C   0  0  0  0  0  0  0  0  0  0  0  0
    4.0855    1.1283   -0.7971 C   0  0  0  0  0  0  0  0  0  0  0  0
    3.4042    0.7106   -1.8896 O   0  0  0  0  0  0  0  0  0  0  0  0
   -0.5950   -0.4910   -1.0916 C   0  0  0  0  0  0  0  0  0  0  0  0
   -0.8191   -1.2766   -0.0567 N   0  0  0  0  0  0  0  0  0  0  0  0
   -1.5588   -0.6146    0.9094 C   0  0  0  0  0  0  0  0  0  0  0  0
   -1.9733   -1.1529    2.1443 C   0  0  0  0  0  0  0  0  0  0  0  0
   -2.7159   -0.3668    3.0314 C   0  0  0  0  0  0  0  0  0  0  0  0
   -3.0484    0.9434    2.7023 C   0  0  0  0  0  0  0  0  0  0  0  0
   -2.6495    1.4995    1.4829 C   0  0  0  0  0  0  0  0  0  0  0  0
   -1.9042    0.7005    0.6000 C   0  0  0  0  0  0  0  0  0  0  0  0
   -1.2800    1.0928   -0.9531 S   0  0  0  0  0  0  0  0  0  0  0  0
    1.8995   -0.8680   -3.3863 H   0  0  0  0  0  0  0  0  0  0  0  0
    1.7062   -0.6602    0.5510 H   0  0  0  0  0  0  0  0  0  0  0  0
    3.8327    0.8116    1.3571 H   0  0  0  0  0  0  0  0  0  0  0  0
    4.9531    1.7429   -0.9926 H   0  0  0  0  0  0  0  0  0  0  0  0
   -1.7135   -2.1762    2.3971 H   0  0  0  0  0  0  0  0  0  0  0  0
   -3.0354   -0.7859    3.9829 H   0  0  0  0  0  0  0  0  0  0  0  0
   -3.6278    1.5440    3.4009 H   0  0  0  0  0  0  0  0  0  0  0  0
   -2.9116    2.5218    1.2269 H   0  0  0  0  0  0  0  0  0  0  0  0
  1  2  3  0
  2  3  1  0
  3  4  2  3
  4  5  1  0
  5  6  2  0
  6  7  1  0
  7  8  2  0
  8  9  1  0
  3 10  1  0
 10 11  2  0
 11 12  1  0
 12 13  2  0
 13 14  1  0
 14 15  2  0
 15 16  1  0
 16 17  2  0
 17 18  1  0
  9  5  1  0
 18 10  1  0
 17 12  1  0
  4 19  1  0
  6 20  1  0
  7 21  1  0
  8 22  1  0
 13 23  1  0
 14 24  1  0
 15 25  1  0
 16 26  1  0
M  END
$$$$
