
     RDKit          3D

 40 42  0  0  0  0  0  0  0  0999 V2000
    2.6895    2.7628    2.7496 C   0  0  0  0  0  0  0  0  0  0  0  0
    1.9271    3.6473    1.7776 C   0  0  0  0  0  0  0  0  0  0  0  0
    0.1290    3.3467    1.8541 S   0  0  0  0  0  0  0  0  0  0  0  0
   -0.0190    1.8008    0.9671 C   0  0  0  0  0  0  0  0  0  0  0  0
   -1.2140    1.1173    1.0375 C   0  0  0  0  0  0  0  0  0  0  0  0
   -1.3159   -0.0657    0.3340 C   0  0  0  0  0  0  0  0  0  0  0  0
   -2.4799   -0.8251    0.3703 N   0  0  0  0  0  0  0  0  0  0  0  0
   -3.7912   -0.1520    0.3300 C   0  0  0  0  0  0  0  0  0  0  0  0
   -4.6882   -0.7649   -0.7596 C   0  0  0  0  0  0  0  0  0  0  0  0
   -4.9039   -2.1739   -0.6050 O   0  0  0  0  0  0  0  0  0  0  0  0
   -3.7647   -2.8696   -0.0739 C   0  0  0  0  0  0  0  0  0  0  0  0
   -2.4304   -2.1395   -0.2922 C   0  0  0  0  0  0  0  0  0  0  0  0
   -0.2653   -0.5293   -0.3633 N   0  0  0  0  0  0  0  0  0  0  0  0
    0.8643    0.2017   -0.3881 C   0  0  0  0  0  0  0  0  0  0  0  0
    2.0047   -0.3193   -1.1715 C   0  0  0  0  0  0  0  0  0  0  0  0
    1.9192   -1.5384   -1.8743 C   0  0  0  0  0  0  0  0  0  0  0  0
    2.9974   -2.0350   -2.6167 C   0  0  0  0  0  0  0  0  0  0  0  0
    4.1877   -1.3179   -2.6702 C   0  0  0  0  0  0  0  0  0  0  0  0
    5.5143   -1.9248   -3.5810 Cl  0  0  0  0  0  0  0  0  0  0  0  0
    4.3081   -0.1113   -1.9893 C   0  0  0  0  0  0  0  0  0  0  0  0
    3.2264    0.3802   -1.2487 C   0  0  0  0  0  0  0  0  0  0  0  0
    1.0261    1.3690    0.2505 N   0  0  0  0  0  0  0  0  0  0  0  0
    2.5844    1.7001    2.5111 H   0  0  0  0  0  0  0  0  0  0  0  0
    2.3546    2.9210    3.7804 H   0  0  0  0  0  0  0  0  0  0  0  0
    3.7571    3.0038    2.7096 H   0  0  0  0  0  0  0  0  0  0  0  0
    2.3004    3.5287    0.7557 H   0  0  0  0  0  0  0  0  0  0  0  0
    2.0893    4.6949    2.0525 H   0  0  0  0  0  0  0  0  0  0  0  0
   -2.0288    1.4871    1.6452 H   0  0  0  0  0  0  0  0  0  0  0  0
   -4.2654   -0.2831    1.3095 H   0  0  0  0  0  0  0  0  0  0  0  0
   -3.7063    0.9227    0.1334 H   0  0  0  0  0  0  0  0  0  0  0  0
   -5.6698   -0.2804   -0.7521 H   0  0  0  0  0  0  0  0  0  0  0  0
   -4.2523   -0.5985   -1.7520 H   0  0  0  0  0  0  0  0  0  0  0  0
   -3.9440   -3.0196    0.9972 H   0  0  0  0  0  0  0  0  0  0  0  0
   -3.7361   -3.8583   -0.5429 H   0  0  0  0  0  0  0  0  0  0  0  0
   -1.6220   -2.7501    0.1272 H   0  0  0  0  0  0  0  0  0  0  0  0
   -2.2563   -2.0128   -1.3683 H   0  0  0  0  0  0  0  0  0  0  0  0
    0.9970   -2.1177   -1.8470 H   0  0  0  0  0  0  0  0  0  0  0  0
    2.8965   -2.9785   -3.1464 H   0  0  0  0  0  0  0  0  0  0  0  0
    5.2353    0.4541   -2.0272 H   0  0  0  0  0  0  0  0  0  0  0  0
    3.3450    1.3276   -0.7244 H   0  0  0  0  0  0  0  0  0  0  0  0
  1  2  1  0
  2  3  1  0
  3  4  1  0
  4  5  2  0
  5  6  1  0
  6  7  1  0
  7  8  1  0
  8  9  1  0
  9 10  1  0
 10 11  1  0
 11 12  1  0
  6 13  2  0
 13 14  1  0
 14 15  1  0
 15 16  2  0
 16 17  1  0
 17 18  2  0
 18 19  1  0
 18 20  1  0
 20 21  2  0
 14 22  2  0
 22  4  1  0
 12  7  1  0
 21 15  1  0
  1 23  1  0
  1 24  1  0
  1 25  1  0
  2 26  1  0
  2 27  1  0
  5 28  1  0
  8 29  1  0
  8 30  1  0
  9 31  1  0
  9 32  1  0
 11 33  1  0
 11 34  1  0
 12 35  1  0
 12 36  1  0
 16 37  1  0
 17 38  1  0
 20 39  1  0
 21 40  1  0
M  END
$$$$
