
     RDKit          3D

 40 41  0  0  0  0  0  0  0  0999 V2000
   -5.1910    0.4537   -0.3662 C   0  0  0  0  0  0  0  0  0  0  0  0
   -4.0889    1.5152   -0.3576 C   0  0  0  0  0  0  0  0  0  0  0  0
   -3.6960    1.9201    1.0691 C   0  0  0  0  0  0  0  0  0  0  0  0
   -2.8837    0.8453    1.7873 C   0  0  0  0  0  0  0  0  0  0  0  0
   -1.7371    0.4055    0.9956 N   0  0  0  0  0  0  0  0  0  0  0  0
   -0.6895   -0.1893    1.7133 C   0  0  0  0  0  0  0  0  0  0  0  0
   -0.7252   -0.3889    2.9253 O   0  0  0  0  0  0  0  0  0  0  0  0
    0.5462   -0.5717    0.9885 C   0  0  0  0  0  0  0  0  0  0  0  0
    1.1171   -1.8245    1.2352 C   0  0  0  0  0  0  0  0  0  0  0  0
    2.2965   -2.1918    0.5830 C   0  0  0  0  0  0  0  0  0  0  0  0
    2.9025   -1.3041   -0.3087 C   0  0  0  0  0  0  0  0  0  0  0  0
    4.1256   -1.6677   -0.9451 N   0  0  0  0  0  0  0  0  0  0  0  0
    5.5619   -1.1648   -0.1963 S   0  0  0  0  0  6  0  0  0  0  0  0
    6.0539    0.1682   -1.2662 C   0  0  0  0  0  0  0  0  0  0  0  0
    6.4955   -2.2529   -0.3974 O   0  0  0  0  0  0  0  0  0  0  0  0
    5.2892   -0.6351    1.1197 O   0  0  0  0  0  0  0  0  0  0  0  0
    2.3590   -0.0367   -0.5232 C   0  0  0  0  0  0  0  0  0  0  0  0
    1.1797    0.3332    0.1278 C   0  0  0  0  0  0  0  0  0  0  0  0
   -2.0481   -0.0106   -0.3745 C   0  0  0  0  0  0  0  0  0  0  0  0
   -2.8426    1.0546   -1.1256 C   0  0  0  0  0  0  0  0  0  0  0  0
   -4.8832   -0.4737    0.1252 H   0  0  0  0  0  0  0  0  0  0  0  0
   -6.0838    0.8239    0.1491 H   0  0  0  0  0  0  0  0  0  0  0  0
   -5.4791    0.2079   -1.3938 H   0  0  0  0  0  0  0  0  0  0  0  0
   -4.4929    2.4012   -0.8644 H   0  0  0  0  0  0  0  0  0  0  0  0
   -3.0908    2.8348    1.0141 H   0  0  0  0  0  0  0  0  0  0  0  0
   -4.5868    2.1680    1.6578 H   0  0  0  0  0  0  0  0  0  0  0  0
   -2.5361    1.2443    2.7475 H   0  0  0  0  0  0  0  0  0  0  0  0
   -3.4982   -0.0354    2.0083 H   0  0  0  0  0  0  0  0  0  0  0  0
    0.6518   -2.5053    1.9448 H   0  0  0  0  0  0  0  0  0  0  0  0
    2.7415   -3.1601    0.7943 H   0  0  0  0  0  0  0  0  0  0  0  0
    4.2147   -2.6625   -1.1645 H   0  0  0  0  0  0  0  0  0  0  0  0
    7.0277    0.5283   -0.9267 H   0  0  0  0  0  0  0  0  0  0  0  0
    5.3203    0.9726   -1.1986 H   0  0  0  0  0  0  0  0  0  0  0  0
    6.1347   -0.2070   -2.2881 H   0  0  0  0  0  0  0  0  0  0  0  0
    2.8416    0.6666   -1.1944 H   0  0  0  0  0  0  0  0  0  0  0  0
    0.7641    1.3260   -0.0259 H   0  0  0  0  0  0  0  0  0  0  0  0
   -2.6145   -0.9473   -0.3081 H   0  0  0  0  0  0  0  0  0  0  0  0
   -1.1425   -0.2447   -0.9377 H   0  0  0  0  0  0  0  0  0  0  0  0
   -2.1928    1.9247   -1.2876 H   0  0  0  0  0  0  0  0  0  0  0  0
   -3.1207    0.6800   -2.1175 H   0  0  0  0  0  0  0  0  0  0  0  0
  1  2  1  0
  2  3  1  0
  3  4  1  0
  4  5  1  0
  5  6  1  0
  6  7  2  0
  6  8  1  0
  8  9  2  0
  9 10  1  0
 10 11  2  0
 11 12  1  0
 12 13  1  0
 13 14  1  0
 13 15  2  0
 13 16  2  0
 11 17  1  0
 17 18  2  0
  5 19  1  0
 19 20  1  0
 20  2  1  0
 18  8  1  0
  1 21  1  0
  1 22  1  0
  1 23  1  0
  2 24  1  0
  3 25  1  0
  3 26  1  0
  4 27  1  0
  4 28  1  0
  9 29  1  0
 10 30  1  0
 12 31  1  0
 14 32  1  0
 14 33  1  0
 14 34  1  0
 17 35  1  0
 18 36  1  0
 19 37  1  0
 19 38  1  0
 20 39  1  0
 20 40  1  0
M  END
$$$$
