
     RDKit          3D

 62 65  0  0  0  0  0  0  0  0999 V2000
    1.3038    0.0848   -3.9050 C   0  0  0  0  0  0  0  0  0  0  0  0
    1.1564    0.2645   -2.5031 O   0  0  0  0  0  0  0  0  0  0  0  0
    1.9778   -0.4697   -1.6810 C   0  0  0  0  0  0  0  0  0  0  0  0
    3.0542   -1.2470   -2.1215 C   0  0  0  0  0  0  0  0  0  0  0  0
    3.8318   -1.9502   -1.2003 C   0  0  0  0  0  0  0  0  0  0  0  0
    3.5271   -1.8705    0.1592 C   0  0  0  0  0  0  0  0  0  0  0  0
    4.5023   -2.7666    1.3399 S   0  0  0  0  0  6  0  0  0  0  0  0
    3.5985   -3.5991    2.1019 O   0  0  0  0  0  0  0  0  0  0  0  0
    5.6414   -3.3385    0.6523 O   0  0  0  0  0  0  0  0  0  0  0  0
    5.0992   -1.5394    2.3596 N   0  0  0  0  0  0  0  0  0  0  0  0
    5.9459   -0.4984    1.6904 C   0  0  0  0  0  0  0  0  0  0  0  0
    6.7780    0.2600    2.7287 C   0  0  0  0  0  0  0  0  0  0  0  0
    7.7098   -0.5821    3.4212 O   0  0  0  0  0  0  0  0  0  0  0  0
    7.2509   -1.9344    3.5672 C   0  0  0  0  0  0  0  0  0  0  0  0
    5.7254   -2.0495    3.6253 C   0  0  0  0  0  0  0  0  0  0  0  0
    2.4561   -1.0957    0.6161 C   0  0  0  0  0  0  0  0  0  0  0  0
    1.6797   -0.3867   -0.3008 C   0  0  0  0  0  0  0  0  0  0  0  0
    0.5815    0.4220    0.0672 N   0  0  0  0  0  0  0  0  0  0  0  0
    0.1038    0.6998    1.3322 C   0  0  0  0  0  0  0  0  0  0  0  0
    0.5833    0.3022    2.3903 O   0  0  0  0  0  0  0  0  0  0  0  0
   -1.1272    1.6124    1.3259 C   0  0  0  0  0  0  0  0  0  0  0  0
   -2.3330    0.9422    0.9568 O   0  0  0  0  0  0  0  0  0  0  0  0
   -2.5335    0.8043   -0.3796 C   0  0  0  0  0  0  0  0  0  0  0  0
   -1.7646    1.2033   -1.2444 O   0  0  0  0  0  0  0  0  0  0  0  0
   -3.8385    0.1030   -0.6558 C   0  0  0  0  0  0  0  0  0  0  0  0
   -5.0151    1.0767   -0.5789 C   0  0  0  0  0  0  0  0  0  0  0  0
   -5.0633    2.0534   -1.7780 C   0  0  0  0  0  0  0  0  0  0  0  0
   -6.4677    1.8210   -2.3636 C   0  0  0  0  0  0  0  0  0  0  0  0
   -7.5197    2.3635   -1.3822 C   0  0  0  0  0  0  0  0  0  0  0  0
   -7.4818    1.3408   -0.2366 C   0  0  0  0  0  0  0  0  0  0  0  0
   -6.3837    0.3586   -0.6864 C   0  0  0  0  0  0  0  0  0  0  0  0
   -6.6267    0.3109   -2.1961 C   0  0  0  0  0  0  0  0  0  0  0  0
    2.2691    0.4679   -4.2499 H   0  0  0  0  0  0  0  0  0  0  0  0
    1.1700   -0.9644   -4.1888 H   0  0  0  0  0  0  0  0  0  0  0  0
    0.5192    0.6653   -4.3998 H   0  0  0  0  0  0  0  0  0  0  0  0
    3.3140   -1.3246   -3.1721 H   0  0  0  0  0  0  0  0  0  0  0  0
    4.6631   -2.5588   -1.5506 H   0  0  0  0  0  0  0  0  0  0  0  0
    6.6200   -0.9680    0.9665 H   0  0  0  0  0  0  0  0  0  0  0  0
    5.2939    0.2069    1.1657 H   0  0  0  0  0  0  0  0  0  0  0  0
    7.3540    1.0554    2.2451 H   0  0  0  0  0  0  0  0  0  0  0  0
    6.1287    0.7327    3.4750 H   0  0  0  0  0  0  0  0  0  0  0  0
    7.6953   -2.3315    4.4854 H   0  0  0  0  0  0  0  0  0  0  0  0
    7.6524   -2.5167    2.7309 H   0  0  0  0  0  0  0  0  0  0  0  0
    5.4393   -3.0868    3.8255 H   0  0  0  0  0  0  0  0  0  0  0  0
    5.3295   -1.4433    4.4487 H   0  0  0  0  0  0  0  0  0  0  0  0
    2.2482   -1.0709    1.6815 H   0  0  0  0  0  0  0  0  0  0  0  0
    0.0765    0.8250   -0.7282 H   0  0  0  0  0  0  0  0  0  0  0  0
   -0.9424    2.4898    0.6934 H   0  0  0  0  0  0  0  0  0  0  0  0
   -1.2670    1.9937    2.3437 H   0  0  0  0  0  0  0  0  0  0  0  0
   -3.7648   -0.3818   -1.6356 H   0  0  0  0  0  0  0  0  0  0  0  0
   -3.9536   -0.7059    0.0757 H   0  0  0  0  0  0  0  0  0  0  0  0
   -4.9514    1.6405    0.3605 H   0  0  0  0  0  0  0  0  0  0  0  0
   -4.9159    3.0908   -1.4597 H   0  0  0  0  0  0  0  0  0  0  0  0
   -4.2993    1.8169   -2.5272 H   0  0  0  0  0  0  0  0  0  0  0  0
   -6.5833    2.1979   -3.3818 H   0  0  0  0  0  0  0  0  0  0  0  0
   -8.5135    2.3754   -1.8438 H   0  0  0  0  0  0  0  0  0  0  0  0
   -7.2910    3.3765   -1.0363 H   0  0  0  0  0  0  0  0  0  0  0  0
   -7.2608    1.8097    0.7280 H   0  0  0  0  0  0  0  0  0  0  0  0
   -8.4496    0.8322   -0.1546 H   0  0  0  0  0  0  0  0  0  0  0  0
   -6.4295   -0.6033   -0.1704 H   0  0  0  0  0  0  0  0  0  0  0  0
   -7.6268   -0.0489   -2.4610 H   0  0  0  0  0  0  0  0  0  0  0  0
   -5.8766   -0.2672   -2.7445 H   0  0  0  0  0  0  0  0  0  0  0  0
  1  2  1  0
  2  3  1  0
  3  4  2  0
  4  5  1  0
  5  6  2  0
  6  7  1  0
  7  8  2  0
  7  9  2  0
  7 10  1  0
 10 11  1  0
 11 12  1  0
 12 13  1  0
 13 14  1  0
 14 15  1  0
  6 16  1  0
 16 17  2  0
 17 18  1  0
 18 19  1  0
 19 20  2  0
 19 21  1  0
 21 22  1  0
 22 23  1  0
 23 24  2  0
 23 25  1  0
 25 26  1  0
 26 27  1  0
 27 28  1  0
 28 29  1  0
 29 30  1  0
 30 31  1  0
 31 32  1  0
 17  3  1  0
 31 26  1  0
 15 10  1  0
 32 28  1  0
  1 33  1  0
  1 34  1  0
  1 35  1  0
  4 36  1  0
  5 37  1  0
 11 38  1  0
 11 39  1  0
 12 40  1  0
 12 41  1  0
 14 42  1  0
 14 43  1  0
 15 44  1  0
 15 45  1  0
 16 46  1  0
 18 47  1  0
 21 48  1  0
 21 49  1  0
 25 50  1  0
 25 51  1  0
 26 52  1  0
 27 53  1  0
 27 54  1  0
 28 55  1  0
 29 56  1  0
 29 57  1  0
 30 58  1  0
 30 59  1  0
 31 60  1  0
 32 61  1  0
 32 62  1  0
M  END
$$$$
