
     RDKit          3D

 51 53  0  0  0  0  0  0  0  0999 V2000
   -6.4322   -1.7444    0.7595 O   0  0  0  0  0  0  0  0  0  0  0  0
   -5.2285   -1.7670    0.5121 C   0  0  0  0  0  0  0  0  0  0  0  0
   -4.2813   -2.6635    1.3181 C   0  0  0  0  0  0  0  0  0  0  0  0
   -3.6344   -1.9856    2.3962 O   0  0  0  0  0  0  0  0  0  0  0  0
   -2.5707   -1.2182    2.0432 C   0  0  0  0  0  0  0  0  0  0  0  0
   -2.1706   -1.0834    0.8949 O   0  0  0  0  0  0  0  0  0  0  0  0
   -1.9354   -0.6120    3.2661 C   0  0  0  0  0  0  0  0  0  0  0  0
   -1.4599    0.8212    3.0292 C   0  0  0  0  0  0  0  0  0  0  0  0
   -0.3449    0.9477    2.0859 N   0  0  0  0  0  0  0  0  0  0  0  0
    0.8784    0.3955    2.4246 C   0  0  0  0  0  0  0  0  0  0  0  0
    1.1294   -0.2026    3.4619 O   0  0  0  0  0  0  0  0  0  0  0  0
    1.8758    0.6325    1.3482 C   0  0  0  0  0  0  0  0  0  0  0  0
    3.1346    0.1798    1.4482 C   0  0  0  0  0  0  0  0  0  0  0  0
    4.1947    0.3421    0.4725 C   0  0  0  0  0  0  0  0  0  0  0  0
    5.4337   -0.1409    0.6728 C   0  0  0  0  0  0  0  0  0  0  0  0
    6.5338   -0.0143   -0.2954 C   0  0  0  0  0  0  0  0  0  0  0  0
    6.3397   -0.1830   -1.6743 C   0  0  0  0  0  0  0  0  0  0  0  0
    7.4205   -0.1096   -2.5584 C   0  0  0  0  0  0  0  0  0  0  0  0
    8.7052    0.1267   -2.0721 C   0  0  0  0  0  0  0  0  0  0  0  0
    8.9122    0.2871   -0.7027 C   0  0  0  0  0  0  0  0  0  0  0  0
    7.8323    0.2121    0.1814 C   0  0  0  0  0  0  0  0  0  0  0  0
    1.1628    1.5298    0.0747 S   0  0  0  0  0  0  0  0  0  0  0  0
   -0.3910    1.6450    0.8939 C   0  0  0  0  0  0  0  0  0  0  0  0
   -1.6597    2.5203    0.2523 S   0  0  0  0  0  0  0  0  0  0  0  0
   -4.5839   -1.0397   -0.4699 N   0  0  0  0  0  0  0  0  0  0  0  0
   -5.1552   -0.1529   -1.4092 C   0  0  0  0  0  0  0  0  0  0  0  0
   -6.5165    0.1385   -1.4936 C   0  0  0  0  0  0  0  0  0  0  0  0
   -6.9726    1.0350   -2.4624 C   0  0  0  0  0  0  0  0  0  0  0  0
   -8.2807    1.3133   -2.5368 F   0  0  0  0  0  0  0  0  0  0  0  0
   -6.1001    1.6484   -3.3566 C   0  0  0  0  0  0  0  0  0  0  0  0
   -4.7398    1.3597   -3.2848 C   0  0  0  0  0  0  0  0  0  0  0  0
   -4.2812    0.4654   -2.3175 C   0  0  0  0  0  0  0  0  0  0  0  0
   -2.9697    0.1759   -2.2725 F   0  0  0  0  0  0  0  0  0  0  0  0
   -4.8768   -3.4761    1.7522 H   0  0  0  0  0  0  0  0  0  0  0  0
   -3.5506   -3.1435    0.6547 H   0  0  0  0  0  0  0  0  0  0  0  0
   -1.1284   -1.2765    3.5863 H   0  0  0  0  0  0  0  0  0  0  0  0
   -2.6797   -0.5882    4.0714 H   0  0  0  0  0  0  0  0  0  0  0  0
   -1.1081    1.2271    3.9859 H   0  0  0  0  0  0  0  0  0  0  0  0
   -2.3076    1.4363    2.7180 H   0  0  0  0  0  0  0  0  0  0  0  0
    3.4074   -0.3724    2.3495 H   0  0  0  0  0  0  0  0  0  0  0  0
    3.9641    0.8819   -0.4437 H   0  0  0  0  0  0  0  0  0  0  0  0
    5.6867   -0.6620    1.5941 H   0  0  0  0  0  0  0  0  0  0  0  0
    5.3499   -0.3907   -2.0737 H   0  0  0  0  0  0  0  0  0  0  0  0
    7.2579   -0.2448   -3.6254 H   0  0  0  0  0  0  0  0  0  0  0  0
    9.5453    0.1794   -2.7591 H   0  0  0  0  0  0  0  0  0  0  0  0
    9.9139    0.4665   -0.3201 H   0  0  0  0  0  0  0  0  0  0  0  0
    8.0147    0.3359    1.2477 H   0  0  0  0  0  0  0  0  0  0  0  0
   -3.5624   -1.0896   -0.4915 H   0  0  0  0  0  0  0  0  0  0  0  0
   -7.2486   -0.3022   -0.8276 H   0  0  0  0  0  0  0  0  0  0  0  0
   -6.4871    2.3408   -4.0988 H   0  0  0  0  0  0  0  0  0  0  0  0
   -4.0352    1.8191   -3.9707 H   0  0  0  0  0  0  0  0  0  0  0  0
  1  2  2  0
  2  3  1  0
  3  4  1  0
  4  5  1  0
  5  6  2  0
  5  7  1  0
  7  8  1  0
  8  9  1  0
  9 10  1  0
 10 11  2  0
 10 12  1  0
 12 13  2  3
 13 14  1  0
 14 15  2  3
 15 16  1  0
 16 17  2  0
 17 18  1  0
 18 19  2  0
 19 20  1  0
 20 21  2  0
 12 22  1  0
 22 23  1  0
 23 24  2  0
  2 25  1  0
 25 26  1  0
 26 27  2  0
 27 28  1  0
 28 29  1  0
 28 30  2  0
 30 31  1  0
 31 32  2  0
 32 33  1  0
 23  9  1  0
 32 26  1  0
 21 16  1  0
  3 34  1  0
  3 35  1  0
  7 36  1  0
  7 37  1  0
  8 38  1  0
  8 39  1  0
 13 40  1  0
 14 41  1  0
 15 42  1  0
 17 43  1  0
 18 44  1  0
 19 45  1  0
 20 46  1  0
 21 47  1  0
 25 48  1  0
 27 49  1  0
 30 50  1  0
 31 51  1  0
M  END
$$$$
