
     RDKit          3D

 48 48  0  0  0  0  0  0  0  0999 V2000
   -6.2358    0.0776   -0.9763 C   0  0  0  0  0  0  0  0  0  0  0  0
   -6.3486    0.9588    0.2554 C   0  0  0  0  0  0  0  0  0  0  0  0
   -5.0061    1.3866    0.8553 C   0  0  0  0  0  0  0  0  0  0  0  0
   -4.1524    0.2360    1.3996 C   0  0  0  0  0  0  0  0  0  0  0  0
   -3.0996   -0.2545    0.4004 C   0  0  0  0  0  0  0  0  0  0  0  0
   -2.2696   -1.3974    0.9902 C   0  0  0  0  0  0  0  0  0  0  0  0
   -1.2718   -2.0018   -0.0028 C   0  0  0  0  0  0  0  0  0  0  0  0
   -0.2264   -1.0361   -0.5676 C   0  0  0  0  0  0  0  0  0  0  0  0
    0.6532   -0.3970    0.5057 C   0  0  0  0  0  0  0  0  0  0  0  0
    1.7638    0.4507   -0.0916 C   0  0  0  0  0  0  0  0  0  0  0  0
    1.8694    0.6727   -1.2941 O   0  0  0  0  0  0  0  0  0  0  0  0
    2.6264    0.9330    0.9011 N   0  0  0  0  0  0  0  0  0  0  0  0
    3.5575    1.8956    0.6017 N   0  0  0  0  0  0  0  0  0  0  0  0
    4.5178    1.6038   -0.2302 C   0  0  0  0  0  0  0  0  0  0  0  0
    5.4107    2.7393   -0.6769 C   0  0  0  0  0  0  0  0  0  0  0  0
    4.8545    0.2598   -0.7502 C   0  0  0  0  0  0  0  0  0  0  0  0
    4.9914    0.0246   -2.1168 C   0  0  0  0  0  0  0  0  0  0  0  0
    5.3260   -1.2558   -2.5503 C   0  0  0  0  0  0  0  0  0  0  0  0
    5.5206   -2.2460   -1.5977 C   0  0  0  0  0  0  0  0  0  0  0  0
    5.4060   -2.0446   -0.2652 N   0  0  0  0  0  0  0  0  0  0  0  0
    5.0723   -0.7918    0.1291 C   0  0  0  0  0  0  0  0  0  0  0  0
   -5.5884    0.5337   -1.7315 H   0  0  0  0  0  0  0  0  0  0  0  0
   -5.8411   -0.9106   -0.7232 H   0  0  0  0  0  0  0  0  0  0  0  0
   -7.2243   -0.0705   -1.4233 H   0  0  0  0  0  0  0  0  0  0  0  0
   -6.9059    1.8636   -0.0158 H   0  0  0  0  0  0  0  0  0  0  0  0
   -6.9452    0.4412    1.0159 H   0  0  0  0  0  0  0  0  0  0  0  0
   -5.2314    2.0615    1.6913 H   0  0  0  0  0  0  0  0  0  0  0  0
   -4.4403    1.9801    0.1271 H   0  0  0  0  0  0  0  0  0  0  0  0
   -4.7899   -0.5938    1.7266 H   0  0  0  0  0  0  0  0  0  0  0  0
   -3.6254    0.5955    2.2929 H   0  0  0  0  0  0  0  0  0  0  0  0
   -2.4448    0.5839    0.1369 H   0  0  0  0  0  0  0  0  0  0  0  0
   -3.5754   -0.5934   -0.5245 H   0  0  0  0  0  0  0  0  0  0  0  0
   -2.9452   -2.1975    1.3188 H   0  0  0  0  0  0  0  0  0  0  0  0
   -1.7441   -1.0519    1.8880 H   0  0  0  0  0  0  0  0  0  0  0  0
   -0.7547   -2.8343    0.4905 H   0  0  0  0  0  0  0  0  0  0  0  0
   -1.8273   -2.4396   -0.8415 H   0  0  0  0  0  0  0  0  0  0  0  0
    0.4085   -1.5945   -1.2679 H   0  0  0  0  0  0  0  0  0  0  0  0
   -0.7146   -0.2565   -1.1643 H   0  0  0  0  0  0  0  0  0  0  0  0
    1.1112   -1.1778    1.1242 H   0  0  0  0  0  0  0  0  0  0  0  0
    0.0527    0.2513    1.1532 H   0  0  0  0  0  0  0  0  0  0  0  0
    2.1838    1.0887    1.8030 H   0  0  0  0  0  0  0  0  0  0  0  0
    4.8701    3.3550   -1.4015 H   0  0  0  0  0  0  0  0  0  0  0  0
    5.6743    3.3571    0.1872 H   0  0  0  0  0  0  0  0  0  0  0  0
    6.3350    2.3739   -1.1324 H   0  0  0  0  0  0  0  0  0  0  0  0
    4.8078    0.8149   -2.8387 H   0  0  0  0  0  0  0  0  0  0  0  0
    5.4235   -1.4791   -3.6072 H   0  0  0  0  0  0  0  0  0  0  0  0
    5.7798   -3.2597   -1.8915 H   0  0  0  0  0  0  0  0  0  0  0  0
    4.9921   -0.6547    1.2036 H   0  0  0  0  0  0  0  0  0  0  0  0
  1  2  1  0
  2  3  1  0
  3  4  1  0
  4  5  1  0
  5  6  1  0
  6  7  1  0
  7  8  1  0
  8  9  1  0
  9 10  1  0
 10 11  2  0
 10 12  1  0
 12 13  1  0
 13 14  2  3
 14 15  1  0
 14 16  1  0
 16 17  2  0
 17 18  1  0
 18 19  2  0
 19 20  1  0
 20 21  2  0
 21 16  1  0
  1 22  1  0
  1 23  1  0
  1 24  1  0
  2 25  1  0
  2 26  1  0
  3 27  1  0
  3 28  1  0
  4 29  1  0
  4 30  1  0
  5 31  1  0
  5 32  1  0
  6 33  1  0
  6 34  1  0
  7 35  1  0
  7 36  1  0
  8 37  1  0
  8 38  1  0
  9 39  1  0
  9 40  1  0
 12 41  1  0
 15 42  1  0
 15 43  1  0
 15 44  1  0
 17 45  1  0
 18 46  1  0
 19 47  1  0
 21 48  1  0
M  END
$$$$
