
     RDKit          3D

 52 55  0  0  0  0  0  0  0  0999 V2000
   -5.3660   -1.3060    1.4666 C   0  0  0  0  0  0  0  0  0  0  0  0
   -4.7468    0.0295    1.1858 C   0  0  0  0  0  0  0  0  0  0  0  0
   -3.4262    0.3049    1.5636 C   0  0  0  0  0  0  0  0  0  0  0  0
   -2.8796    1.5701    1.3124 C   0  0  0  0  0  0  0  0  0  0  0  0
   -1.2033    1.9211    1.7936 S   0  0  0  0  0  6  0  0  0  0  0  0
   -0.7563    0.8657    2.6729 O   0  0  0  0  0  0  0  0  0  0  0  0
   -1.1399    3.3156    2.1710 O   0  0  0  0  0  0  0  0  0  0  0  0
   -0.3911    1.7878    0.3440 N   0  0  0  0  0  0  0  0  0  0  0  0
   -0.3329    0.5079   -0.3760 C   0  0  0  0  0  0  0  0  0  0  0  0
    1.0777    0.2654   -1.0087 C   0  0  0  0  0  0  0  0  0  0  0  0
    2.1232    0.2422    0.1133 C   0  0  0  0  0  0  0  0  0  0  0  0
    3.0502    1.3063    0.2389 C   0  0  0  0  0  0  0  0  0  0  0  0
    4.0076    1.3125    1.2585 C   0  0  0  0  0  0  0  0  0  0  0  0
    4.0187    0.2499    2.1346 C   0  0  0  0  0  0  0  0  0  0  0  0
    3.1283   -0.7907    2.0225 C   0  0  0  0  0  0  0  0  0  0  0  0
    2.1735   -0.8261    1.0291 C   0  0  0  0  0  0  0  0  0  0  0  0
    3.3143   -1.7388    2.9796 O   0  0  0  0  0  0  0  0  0  0  0  0
    4.3975   -1.1541    3.7307 C   0  0  0  0  0  0  0  0  0  0  0  0
    4.8752    0.0904    3.1788 O   0  0  0  0  0  0  0  0  0  0  0  0
    1.1731   -0.9640   -1.8514 N   0  0  0  0  0  0  0  0  0  0  0  0
    0.1108   -1.0482   -2.8787 C   0  0  0  0  0  0  0  0  0  0  0  0
    0.2858   -2.2675   -3.8008 C   0  0  0  0  0  0  0  0  0  0  0  0
    1.5606   -2.2488   -4.4485 O   0  0  0  0  0  0  0  0  0  0  0  0
    2.5999   -2.2549   -3.4637 C   0  0  0  0  0  0  0  0  0  0  0  0
    2.4898   -1.0305   -2.5423 C   0  0  0  0  0  0  0  0  0  0  0  0
   -3.6457    2.5787    0.7183 C   0  0  0  0  0  0  0  0  0  0  0  0
   -4.9642    2.3093    0.3546 C   0  0  0  0  0  0  0  0  0  0  0  0
   -5.5021    1.0458    0.5909 C   0  0  0  0  0  0  0  0  0  0  0  0
   -6.7742    0.8113    0.2393 F   0  0  0  0  0  0  0  0  0  0  0  0
   -6.0003   -1.6220    0.6320 H   0  0  0  0  0  0  0  0  0  0  0  0
   -5.9712   -1.2544    2.3767 H   0  0  0  0  0  0  0  0  0  0  0  0
   -4.5993   -2.0764    1.6008 H   0  0  0  0  0  0  0  0  0  0  0  0
   -2.8276   -0.4618    2.0535 H   0  0  0  0  0  0  0  0  0  0  0  0
   -0.1427    2.6602   -0.1150 H   0  0  0  0  0  0  0  0  0  0  0  0
   -1.0945    0.5712   -1.1598 H   0  0  0  0  0  0  0  0  0  0  0  0
   -0.6006   -0.3275    0.2802 H   0  0  0  0  0  0  0  0  0  0  0  0
    1.2844    1.1327   -1.6528 H   0  0  0  0  0  0  0  0  0  0  0  0
    3.0253    2.1401   -0.4590 H   0  0  0  0  0  0  0  0  0  0  0  0
    4.7158    2.1265    1.3619 H   0  0  0  0  0  0  0  0  0  0  0  0
    1.4847   -1.6615    0.9629 H   0  0  0  0  0  0  0  0  0  0  0  0
    4.0574   -0.9756    4.7575 H   0  0  0  0  0  0  0  0  0  0  0  0
    5.2297   -1.8669    3.7559 H   0  0  0  0  0  0  0  0  0  0  0  0
   -0.8715   -1.1460   -2.4063 H   0  0  0  0  0  0  0  0  0  0  0  0
    0.1136   -0.1365   -3.4896 H   0  0  0  0  0  0  0  0  0  0  0  0
   -0.4822   -2.2529   -4.5809 H   0  0  0  0  0  0  0  0  0  0  0  0
    0.1739   -3.2056   -3.2434 H   0  0  0  0  0  0  0  0  0  0  0  0
    3.5574   -2.2338   -3.9939 H   0  0  0  0  0  0  0  0  0  0  0  0
    2.5568   -3.1898   -2.8918 H   0  0  0  0  0  0  0  0  0  0  0  0
    3.3090   -1.0900   -1.8183 H   0  0  0  0  0  0  0  0  0  0  0  0
    2.6340   -0.1241   -3.1450 H   0  0  0  0  0  0  0  0  0  0  0  0
   -3.2277    3.5681    0.5480 H   0  0  0  0  0  0  0  0  0  0  0  0
   -5.5822    3.0763   -0.1026 H   0  0  0  0  0  0  0  0  0  0  0  0
  1  2  1  0
  2  3  2  0
  3  4  1  0
  4  5  1  0
  5  6  2  0
  5  7  2  0
  5  8  1  0
  8  9  1  0
  9 10  1  0
 10 11  1  0
 11 12  2  0
 12 13  1  0
 13 14  2  0
 14 15  1  0
 15 16  2  0
 15 17  1  0
 17 18  1  0
 18 19  1  0
 10 20  1  0
 20 21  1  0
 21 22  1  0
 22 23  1  0
 23 24  1  0
 24 25  1  0
  4 26  2  0
 26 27  1  0
 27 28  2  0
 28 29  1  0
 28  2  1  0
 16 11  1  0
 25 20  1  0
 19 14  1  0
  1 30  1  0
  1 31  1  0
  1 32  1  0
  3 33  1  0
  8 34  1  0
  9 35  1  0
  9 36  1  0
 10 37  1  0
 12 38  1  0
 13 39  1  0
 16 40  1  0
 18 41  1  0
 18 42  1  0
 21 43  1  0
 21 44  1  0
 22 45  1  0
 22 46  1  0
 24 47  1  0
 24 48  1  0
 25 49  1  0
 25 50  1  0
 26 51  1  0
 27 52  1  0
M  END
$$$$
