
     RDKit          3D

 51 53  0  0  0  0  0  0  0  0999 V2000
   -9.0328   -0.9760    0.2179 C   0  0  0  0  0  0  0  0  0  0  0  0
   -7.5575   -0.6915    0.1494 C   0  0  0  0  0  0  0  0  0  0  0  0
   -7.0439    0.4432    0.7949 C   0  0  0  0  0  0  0  0  0  0  0  0
   -5.6781    0.7409    0.7545 C   0  0  0  0  0  0  0  0  0  0  0  0
   -4.8030   -0.0949    0.0665 C   0  0  0  0  0  0  0  0  0  0  0  0
   -3.4513    0.0747   -0.0547 O   0  0  0  0  0  0  0  0  0  0  0  0
   -2.8827    1.2174    0.5821 C   0  0  0  0  0  0  0  0  0  0  0  0
   -1.4245    1.1812    0.3239 C   0  0  0  0  0  0  0  0  0  0  0  0
   -0.5126    0.1963    0.0371 C   0  0  0  0  0  0  0  0  0  0  0  0
    0.7355    0.8683   -0.0847 C   0  0  0  0  0  0  0  0  0  0  0  0
    2.0308    0.2181   -0.3533 C   0  0  0  0  0  0  0  0  0  0  0  0
    2.1441   -0.9934   -0.1471 O   0  0  0  0  0  0  0  0  0  0  0  0
    3.1236    0.9607   -0.8368 N   0  0  0  0  0  0  0  0  0  0  0  0
    3.0968    2.3901   -1.1121 C   0  0  0  0  0  0  0  0  0  0  0  0
    4.4405    0.3197   -0.8094 C   0  0  0  0  0  0  0  0  0  0  0  0
    5.1235    0.4640    0.5550 C   0  0  0  0  0  0  0  0  0  0  0  0
    6.4838   -0.1865    0.5706 C   0  0  0  0  0  0  0  0  0  0  0  0
    6.6066   -1.5607    0.8174 C   0  0  0  0  0  0  0  0  0  0  0  0
    7.8620   -2.1700    0.8131 C   0  0  0  0  0  0  0  0  0  0  0  0
    9.0042   -1.4132    0.5587 C   0  0  0  0  0  0  0  0  0  0  0  0
    8.8922   -0.0468    0.3071 C   0  0  0  0  0  0  0  0  0  0  0  0
    7.6375    0.5649    0.3108 C   0  0  0  0  0  0  0  0  0  0  0  0
    0.5721    2.1806    0.1580 N   0  0  0  0  0  0  0  0  0  0  0  0
   -0.7734    2.3714    0.3966 O   0  0  0  0  0  0  0  0  0  0  0  0
   -5.3074   -1.2280   -0.5776 C   0  0  0  0  0  0  0  0  0  0  0  0
   -6.6765   -1.5415   -0.5447 C   0  0  0  0  0  0  0  0  0  0  0  0
   -7.1670   -2.7719   -1.2570 C   0  0  0  0  0  0  0  0  0  0  0  0
   -9.2126   -1.9269    0.7291 H   0  0  0  0  0  0  0  0  0  0  0  0
   -9.4608   -1.0150   -0.7888 H   0  0  0  0  0  0  0  0  0  0  0  0
   -9.5673   -0.1965    0.7714 H   0  0  0  0  0  0  0  0  0  0  0  0
   -7.7097    1.1108    1.3388 H   0  0  0  0  0  0  0  0  0  0  0  0
   -5.3402    1.6323    1.2717 H   0  0  0  0  0  0  0  0  0  0  0  0
   -3.0534    1.1790    1.6642 H   0  0  0  0  0  0  0  0  0  0  0  0
   -3.3079    2.1361    0.1609 H   0  0  0  0  0  0  0  0  0  0  0  0
   -0.7044   -0.8613   -0.0739 H   0  0  0  0  0  0  0  0  0  0  0  0
    2.1821    2.6600   -1.6451 H   0  0  0  0  0  0  0  0  0  0  0  0
    3.1697    2.9386   -0.1687 H   0  0  0  0  0  0  0  0  0  0  0  0
    3.9407    2.6631   -1.7530 H   0  0  0  0  0  0  0  0  0  0  0  0
    4.3273   -0.7431   -1.0570 H   0  0  0  0  0  0  0  0  0  0  0  0
    5.0572    0.7522   -1.6068 H   0  0  0  0  0  0  0  0  0  0  0  0
    4.5006    0.0228    1.3438 H   0  0  0  0  0  0  0  0  0  0  0  0
    5.2203    1.5252    0.8184 H   0  0  0  0  0  0  0  0  0  0  0  0
    5.7222   -2.1644    1.0138 H   0  0  0  0  0  0  0  0  0  0  0  0
    7.9477   -3.2360    1.0075 H   0  0  0  0  0  0  0  0  0  0  0  0
    9.9814   -1.8886    0.5559 H   0  0  0  0  0  0  0  0  0  0  0  0
    9.7831    0.5429    0.1077 H   0  0  0  0  0  0  0  0  0  0  0  0
    7.5674    1.6316    0.1111 H   0  0  0  0  0  0  0  0  0  0  0  0
   -4.6153   -1.8752   -1.1135 H   0  0  0  0  0  0  0  0  0  0  0  0
   -7.8588   -2.4958   -2.0590 H   0  0  0  0  0  0  0  0  0  0  0  0
   -6.3413   -3.3310   -1.7098 H   0  0  0  0  0  0  0  0  0  0  0  0
   -7.6702   -3.4441   -0.5548 H   0  0  0  0  0  0  0  0  0  0  0  0
  1  2  1  0
  2  3  2  0
  3  4  1  0
  4  5  2  0
  5  6  1  0
  6  7  1  0
  7  8  1  0
  8  9  2  0
  9 10  1  0
 10 11  1  0
 11 12  2  0
 11 13  1  0
 13 14  1  0
 13 15  1  0
 15 16  1  0
 16 17  1  0
 17 18  2  0
 18 19  1  0
 19 20  2  0
 20 21  1  0
 21 22  2  0
 10 23  2  0
 23 24  1  0
  5 25  1  0
 25 26  2  0
 26 27  1  0
 26  2  1  0
 24  8  1  0
 22 17  1  0
  1 28  1  0
  1 29  1  0
  1 30  1  0
  3 31  1  0
  4 32  1  0
  7 33  1  0
  7 34  1  0
  9 35  1  0
 14 36  1  0
 14 37  1  0
 14 38  1  0
 15 39  1  0
 15 40  1  0
 16 41  1  0
 16 42  1  0
 18 43  1  0
 19 44  1  0
 20 45  1  0
 21 46  1  0
 22 47  1  0
 25 48  1  0
 27 49  1  0
 27 50  1  0
 27 51  1  0
M  END
$$$$
