
     RDKit          3D

 54 57  0  0  0  0  0  0  0  0999 V2000
   -7.7763   -0.2220    3.1481 C   0  0  0  0  0  0  0  0  0  0  0  0
   -7.0115   -1.0914    2.3187 O   0  0  0  0  0  0  0  0  0  0  0  0
   -5.8293   -0.5998    1.8435 C   0  0  0  0  0  0  0  0  0  0  0  0
   -5.4073    0.7250    1.9087 C   0  0  0  0  0  0  0  0  0  0  0  0
   -4.1616    1.0910    1.3812 C   0  0  0  0  0  0  0  0  0  0  0  0
   -3.3201    0.1438    0.7708 C   0  0  0  0  0  0  0  0  0  0  0  0
   -2.0537    0.5756    0.2635 N   0  0  0  0  0  0  0  0  0  0  0  0
   -1.6235    1.8385    0.5615 N   0  0  0  0  0  0  0  0  0  0  0  0
   -0.4003    1.9308    0.0472 C   0  0  0  0  0  0  0  0  0  0  0  0
   -0.0118    0.7626   -0.6161 C   0  0  0  0  0  0  0  0  0  0  0  0
   -1.1076   -0.0774   -0.5181 C   0  0  0  0  0  0  0  0  0  0  0  0
   -1.2050   -1.4121   -1.1824 C   0  0  0  0  0  0  0  0  0  0  0  0
   -0.1059   -1.5881   -2.2787 C   0  0  0  0  0  0  0  0  0  0  0  0
   -0.5218   -0.8641   -3.5762 C   0  0  0  0  0  0  0  0  0  0  0  0
    0.0391   -3.0893   -2.5961 C   0  0  0  0  0  0  0  0  0  0  0  0
    1.2631   -1.0505   -1.7660 C   0  0  0  0  0  0  0  0  0  0  0  0
    1.2341    0.4449   -1.3688 C   0  0  0  0  0  0  0  0  0  0  0  0
    2.3669    0.7800   -0.5376 N   0  0  0  0  0  0  0  0  0  0  0  0
    3.6329    0.9561   -1.0509 C   0  0  0  0  0  0  0  0  0  0  0  0
    3.8972    0.9390   -2.2471 O   0  0  0  0  0  0  0  0  0  0  0  0
    4.6897    1.1624   -0.0212 C   0  0  0  0  0  0  0  0  0  0  0  0
    6.0099    1.3397   -0.4016 C   0  0  0  0  0  0  0  0  0  0  0  0
    7.0051    1.5261    0.5063 N   0  0  0  0  0  0  0  0  0  0  0  0
    6.6281    1.5296    1.8104 C   0  0  0  0  0  0  0  0  0  0  0  0
    7.6854    1.7519    2.8457 C   0  0  0  0  0  0  0  0  0  0  0  0
    5.2964    1.3529    2.1810 C   0  0  0  0  0  0  0  0  0  0  0  0
    4.2956    1.1603    1.2852 N   0  0  0  0  0  0  0  0  0  0  0  0
   -3.7520   -1.1840    0.7120 C   0  0  0  0  0  0  0  0  0  0  0  0
   -5.0013   -1.5445    1.2357 C   0  0  0  0  0  0  0  0  0  0  0  0
   -8.1672    0.6290    2.5768 H   0  0  0  0  0  0  0  0  0  0  0  0
   -7.1908    0.1186    4.0126 H   0  0  0  0  0  0  0  0  0  0  0  0
   -8.6314   -0.7902    3.5283 H   0  0  0  0  0  0  0  0  0  0  0  0
   -6.0165    1.5009    2.3594 H   0  0  0  0  0  0  0  0  0  0  0  0
   -3.8647    2.1383    1.4497 H   0  0  0  0  0  0  0  0  0  0  0  0
    0.1543    2.8525    0.1726 H   0  0  0  0  0  0  0  0  0  0  0  0
   -2.1911   -1.5478   -1.6413 H   0  0  0  0  0  0  0  0  0  0  0  0
   -1.0713   -2.1855   -0.4146 H   0  0  0  0  0  0  0  0  0  0  0  0
   -0.7096    0.2023   -3.4162 H   0  0  0  0  0  0  0  0  0  0  0  0
   -1.4409   -1.2958   -3.9891 H   0  0  0  0  0  0  0  0  0  0  0  0
    0.2575   -0.9522   -4.3422 H   0  0  0  0  0  0  0  0  0  0  0  0
   -0.9087   -3.5096   -2.9514 H   0  0  0  0  0  0  0  0  0  0  0  0
    0.7943   -3.2601   -3.3726 H   0  0  0  0  0  0  0  0  0  0  0  0
    0.3435   -3.6539   -1.7066 H   0  0  0  0  0  0  0  0  0  0  0  0
    2.0438   -1.2114   -2.5219 H   0  0  0  0  0  0  0  0  0  0  0  0
    1.5661   -1.6490   -0.8926 H   0  0  0  0  0  0  0  0  0  0  0  0
    1.2770    1.0609   -2.2754 H   0  0  0  0  0  0  0  0  0  0  0  0
    2.2955    0.7093    0.4743 H   0  0  0  0  0  0  0  0  0  0  0  0
    6.3105    1.3375   -1.4442 H   0  0  0  0  0  0  0  0  0  0  0  0
    7.6701    0.9458    3.5859 H   0  0  0  0  0  0  0  0  0  0  0  0
    7.5223    2.7077    3.3524 H   0  0  0  0  0  0  0  0  0  0  0  0
    8.6805    1.7710    2.3871 H   0  0  0  0  0  0  0  0  0  0  0  0
    4.9940    1.3633    3.2237 H   0  0  0  0  0  0  0  0  0  0  0  0
   -3.1474   -1.9858    0.3118 H   0  0  0  0  0  0  0  0  0  0  0  0
   -5.3239   -2.5829    1.1857 H   0  0  0  0  0  0  0  0  0  0  0  0
  1  2  1  0
  2  3  1  0
  3  4  2  0
  4  5  1  0
  5  6  2  0
  6  7  1  0
  7  8  1  0
  8  9  2  0
  9 10  1  0
 10 11  2  0
 11 12  1  0
 12 13  1  0
 13 14  1  0
 13 15  1  0
 13 16  1  0
 16 17  1  0
 17 18  1  0
 18 19  1  0
 19 20  2  0
 19 21  1  0
 21 22  2  0
 22 23  1  0
 23 24  2  0
 24 25  1  0
 24 26  1  0
 26 27  2  0
  6 28  1  0
 28 29  2  0
 29  3  1  0
 11  7  1  0
 27 21  1  0
 17 10  1  0
  1 30  1  0
  1 31  1  0
  1 32  1  0
  4 33  1  0
  5 34  1  0
  9 35  1  0
 12 36  1  0
 12 37  1  0
 14 38  1  0
 14 39  1  0
 14 40  1  0
 15 41  1  0
 15 42  1  0
 15 43  1  0
 16 44  1  0
 16 45  1  0
 17 46  1  0
 18 47  1  0
 22 48  1  0
 25 49  1  0
 25 50  1  0
 25 51  1  0
 26 52  1  0
 28 53  1  0
 29 54  1  0
M  END
$$$$
