
     RDKit          3D

 67 72  0  0  0  0  0  0  0  0999 V2000
    5.2418    3.1768    0.6025 C   0  0  0  0  0  0  0  0  0  0  0  0
    5.5575    1.6731    0.6025 C   0  0  0  0  0  0  0  0  0  0  0  0
    5.9918    1.2652    2.0145 C   0  0  0  0  0  0  0  0  0  0  0  0
    6.6518    1.4042   -0.4362 C   0  0  0  0  0  0  0  0  0  0  0  0
    4.3080    1.0382    0.2286 O   0  0  0  0  0  0  0  0  0  0  0  0
    4.2102   -0.3126    0.1311 C   0  0  0  0  0  0  0  0  0  0  0  0
    5.1317   -1.0905    0.3422 O   0  0  0  0  0  0  0  0  0  0  0  0
    2.9395   -0.7169   -0.2424 N   0  0  0  0  0  0  0  0  0  0  0  0
    2.6265   -2.1537   -0.1614 C   0  0  0  0  0  0  0  0  0  0  0  0
    1.4025   -2.5865   -1.0083 C   0  0  0  0  0  0  0  0  0  0  0  0
    0.3049   -1.6672   -0.7583 N   0  0  0  0  0  0  0  0  0  0  0  0
    0.6911   -0.2755   -1.1564 C   0  0  2  0  0  0  0  0  0  0  0  0
    1.7911    0.2125   -0.2199 C   0  0  0  0  0  0  0  0  0  0  0  0
   -0.6307    0.3848   -1.1200 C   0  0  0  0  0  0  0  0  0  0  0  0
   -1.6505   -0.5876   -1.2271 C   0  0  0  0  0  0  0  0  0  0  0  0
   -2.8602    0.0563   -1.2229 C   0  0  0  0  0  0  0  0  0  0  0  0
   -4.1086   -0.3888   -1.2956 O   0  0  0  0  0  0  0  0  0  0  0  0
   -2.5820    1.4107   -1.0983 N   0  0  0  0  0  0  0  0  0  0  0  0
   -3.5893    2.4639   -1.0620 C   0  0  0  0  0  0  0  0  0  0  0  0
   -4.0732    2.7287    0.3432 C   0  0  0  0  0  0  0  0  0  0  0  0
   -3.3758    3.6074    1.1849 C   0  0  0  0  0  0  0  0  0  0  0  0
   -3.8210    3.8463    2.4861 C   0  0  0  0  0  0  0  0  0  0  0  0
   -4.9645    3.2072    2.9610 C   0  0  0  0  0  0  0  0  0  0  0  0
   -5.6613    2.3253    2.1376 C   0  0  0  0  0  0  0  0  0  0  0  0
   -5.2172    2.0847    0.8365 C   0  0  0  0  0  0  0  0  0  0  0  0
   -1.2100    1.6227   -1.0686 C   0  0  0  0  0  0  0  0  0  0  0  0
   -0.7015    2.8466   -1.0090 O   0  0  0  0  0  0  0  0  0  0  0  0
   -1.0442   -1.9442   -1.2987 C   0  0  1  0  0  0  0  0  0  0  0  0
   -1.0711   -2.5523   -2.7290 C   0  0  0  0  0  0  0  0  0  0  0  0
   -0.5035   -2.1613   -3.7381 O   0  0  0  0  0  0  0  0  0  0  0  0
   -1.8781   -3.6924   -2.6597 N   0  0  0  0  0  0  0  0  0  0  0  0
   -2.3474   -3.9032   -1.3691 C   0  0  0  0  0  0  0  0  0  0  0  0
   -3.1562   -4.9335   -0.9392 C   0  0  0  0  0  0  0  0  0  0  0  0
   -3.5056   -4.9530    0.4133 C   0  0  0  0  0  0  0  0  0  0  0  0
   -3.0410   -3.9574    1.2927 C   0  0  0  0  0  0  0  0  0  0  0  0
   -2.2204   -2.9230    0.8348 C   0  0  0  0  0  0  0  0  0  0  0  0
   -1.8828   -2.9028   -0.5091 C   0  0  0  0  0  0  0  0  0  0  0  0
    4.8867    3.5006   -0.3829 H   0  0  0  0  0  0  0  0  0  0  0  0
    6.1186    3.7765    0.8688 H   0  0  0  0  0  0  0  0  0  0  0  0
    4.4373    3.4059    1.3114 H   0  0  0  0  0  0  0  0  0  0  0  0
    6.8290    1.8769    2.3671 H   0  0  0  0  0  0  0  0  0  0  0  0
    5.1615    1.3696    2.7213 H   0  0  0  0  0  0  0  0  0  0  0  0
    6.3114    0.2198    2.0583 H   0  0  0  0  0  0  0  0  0  0  0  0
    6.9712    0.3577   -0.4323 H   0  0  0  0  0  0  0  0  0  0  0  0
    7.5395    2.0180   -0.2484 H   0  0  0  0  0  0  0  0  0  0  0  0
    6.2882    1.6179   -1.4478 H   0  0  0  0  0  0  0  0  0  0  0  0
    2.4362   -2.3714    0.8977 H   0  0  0  0  0  0  0  0  0  0  0  0
    3.5023   -2.7400   -0.4616 H   0  0  0  0  0  0  0  0  0  0  0  0
    1.1283   -3.6096   -0.7282 H   0  0  0  0  0  0  0  0  0  0  0  0
    1.6813   -2.5940   -2.0688 H   0  0  0  0  0  0  0  0  0  0  0  0
    1.0572   -0.2680   -2.1933 H   0  0  0  0  0  0  0  0  0  0  0  0
    1.4423    0.2757    0.8188 H   0  0  0  0  0  0  0  0  0  0  0  0
    2.1093    1.2178   -0.5153 H   0  0  0  0  0  0  0  0  0  0  0  0
   -4.0748   -1.3618   -1.2607 H   0  0  0  0  0  0  0  0  0  0  0  0
   -4.4175    2.1663   -1.7161 H   0  0  0  0  0  0  0  0  0  0  0  0
   -3.1611    3.3715   -1.5031 H   0  0  0  0  0  0  0  0  0  0  0  0
   -2.4759    4.1050    0.8287 H   0  0  0  0  0  0  0  0  0  0  0  0
   -3.2726    4.5284    3.1300 H   0  0  0  0  0  0  0  0  0  0  0  0
   -5.3096    3.3919    3.9745 H   0  0  0  0  0  0  0  0  0  0  0  0
   -6.5485    1.8200    2.5090 H   0  0  0  0  0  0  0  0  0  0  0  0
   -5.7639    1.3845    0.2080 H   0  0  0  0  0  0  0  0  0  0  0  0
    0.2664    2.7686   -1.0589 H   0  0  0  0  0  0  0  0  0  0  0  0
   -2.0582   -4.2811   -3.4591 H   0  0  0  0  0  0  0  0  0  0  0  0
   -3.5107   -5.7040   -1.6142 H   0  0  0  0  0  0  0  0  0  0  0  0
   -4.1416   -5.7487    0.7955 H   0  0  0  0  0  0  0  0  0  0  0  0
   -3.3234   -3.9935    2.3431 H   0  0  0  0  0  0  0  0  0  0  0  0
   -1.8613   -2.1526    1.5117 H   0  0  0  0  0  0  0  0  0  0  0  0
  1  2  1  0
  2  3  1  0
  2  4  1  0
  2  5  1  0
  5  6  1  0
  6  7  2  0
  6  8  1  0
  8  9  1  0
  9 10  1  0
 10 11  1  0
 11 12  1  0
 12 13  1  0
 12 14  1  0
 14 15  1  0
 15 16  2  0
 16 17  1  0
 16 18  1  0
 18 19  1  0
 19 20  1  0
 20 21  2  0
 21 22  1  0
 22 23  2  0
 23 24  1  0
 24 25  2  0
 18 26  1  0
 26 27  1  0
 15 28  1  0
 28 29  1  0
 29 30  2  0
 29 31  1  0
 31 32  1  0
 32 33  2  0
 33 34  1  0
 34 35  2  0
 35 36  1  0
 36 37  2  0
 13  8  1  0
 26 14  2  0
 37 28  1  0
 28 11  1  1
 37 32  1  0
 25 20  1  0
  1 38  1  0
  1 39  1  0
  1 40  1  0
  3 41  1  0
  3 42  1  0
  3 43  1  0
  4 44  1  0
  4 45  1  0
  4 46  1  0
  9 47  1  0
  9 48  1  0
 10 49  1  0
 10 50  1  0
 12 51  1  6
 13 52  1  0
 13 53  1  0
 17 54  1  0
 19 55  1  0
 19 56  1  0
 21 57  1  0
 22 58  1  0
 23 59  1  0
 24 60  1  0
 25 61  1  0
 27 62  1  0
 31 63  1  0
 33 64  1  0
 34 65  1  0
 35 66  1  0
 36 67  1  0
M  END
$$$$
