
     RDKit          3D

 30 31  0  0  0  0  0  0  0  0999 V2000
   -1.2246   -2.2218    0.3989 N   0  0  0  0  0  0  0  0  0  0  0  0
   -1.5695   -1.1410   -0.2345 C   0  0  0  0  0  0  0  0  0  0  0  0
   -0.8698   -0.6695   -1.3309 N   0  0  0  0  0  0  0  0  0  0  0  0
    0.4208   -1.2308   -1.4137 O   0  0  0  0  0  0  0  0  0  0  0  0
    1.3759   -0.4028   -0.8713 C   0  0  0  0  0  0  0  0  0  0  0  0
    1.1486    0.7506   -0.5211 O   0  0  0  0  0  0  0  0  0  0  0  0
    2.6818   -1.1578   -0.7756 C   0  0  0  0  0  0  0  0  0  0  0  0
    3.8194   -0.2425   -0.4346 C   0  0  0  0  0  0  0  0  0  0  0  0
    4.2809    0.1214    0.8157 C   0  0  0  0  0  0  0  0  0  0  0  0
    5.3929    1.0093    0.7450 C   0  0  0  0  0  0  0  0  0  0  0  0
    5.7462    1.2905   -0.5554 C   0  0  0  0  0  0  0  0  0  0  0  0
    4.7426    0.4869   -1.6817 S   0  0  0  0  0  0  0  0  0  0  0  0
   -2.7575   -0.3555    0.2141 C   0  0  0  0  0  0  0  0  0  0  0  0
   -3.6434    0.1671   -0.7356 C   0  0  0  0  0  0  0  0  0  0  0  0
   -4.7513    0.9087   -0.3175 C   0  0  0  0  0  0  0  0  0  0  0  0
   -4.9657    1.1285    1.0434 C   0  0  0  0  0  0  0  0  0  0  0  0
   -6.3296    2.0431    1.5553 Cl  0  0  0  0  0  0  0  0  0  0  0  0
   -4.0819    0.6140    1.9923 C   0  0  0  0  0  0  0  0  0  0  0  0
   -2.9740   -0.1301    1.5787 C   0  0  0  0  0  0  0  0  0  0  0  0
   -1.8840   -2.4404    1.1512 H   0  0  0  0  0  0  0  0  0  0  0  0
   -0.8390    0.3503   -1.4009 H   0  0  0  0  0  0  0  0  0  0  0  0
    2.8716   -1.6623   -1.7301 H   0  0  0  0  0  0  0  0  0  0  0  0
    2.5764   -1.9226    0.0023 H   0  0  0  0  0  0  0  0  0  0  0  0
    3.8375   -0.2263    1.7415 H   0  0  0  0  0  0  0  0  0  0  0  0
    5.9056    1.4229    1.6046 H   0  0  0  0  0  0  0  0  0  0  0  0
    6.5459    1.9313   -0.9006 H   0  0  0  0  0  0  0  0  0  0  0  0
   -3.4906   -0.0148   -1.7969 H   0  0  0  0  0  0  0  0  0  0  0  0
   -5.4433    1.3080   -1.0548 H   0  0  0  0  0  0  0  0  0  0  0  0
   -4.2467    0.7935    3.0518 H   0  0  0  0  0  0  0  0  0  0  0  0
   -2.2754   -0.5080    2.3215 H   0  0  0  0  0  0  0  0  0  0  0  0
  1  2  2  3
  2  3  1  0
  3  4  1  0
  4  5  1  0
  5  6  2  0
  5  7  1  0
  7  8  1  0
  8  9  2  0
  9 10  1  0
 10 11  2  0
 11 12  1  0
  2 13  1  0
 13 14  2  0
 14 15  1  0
 15 16  2  0
 16 17  1  0
 16 18  1  0
 18 19  2  0
 12  8  1  0
 19 13  1  0
  1 20  1  0
  3 21  1  0
  7 22  1  0
  7 23  1  0
  9 24  1  0
 10 25  1  0
 11 26  1  0
 14 27  1  0
 15 28  1  0
 18 29  1  0
 19 30  1  0
M  END
$$$$
