
     RDKit          3D

 36 38  0  0  0  0  0  0  0  0999 V2000
    2.4547    1.9282    2.9412 N   0  0  0  0  0  0  0  0  0  0  0  0
    1.8104    1.2781    2.2239 C   0  0  0  0  0  0  0  0  0  0  0  0
    1.0065    0.4965    1.3279 C   0  0  0  0  0  0  0  0  0  0  0  0
   -0.1064    1.0620    0.6789 C   0  0  0  0  0  0  0  0  0  0  0  0
   -0.5128    2.4618    0.8797 C   0  0  0  0  0  0  0  0  0  0  0  0
   -1.6388    2.7718    1.6608 C   0  0  0  0  0  0  0  0  0  0  0  0
   -2.0276    4.0992    1.8571 C   0  0  0  0  0  0  0  0  0  0  0  0
   -1.2978    5.1335    1.2736 C   0  0  0  0  0  0  0  0  0  0  0  0
   -0.1809    4.8424    0.4916 C   0  0  0  0  0  0  0  0  0  0  0  0
    0.2082    3.5152    0.2935 C   0  0  0  0  0  0  0  0  0  0  0  0
   -0.8668    0.2544   -0.1846 C   0  0  0  0  0  0  0  0  0  0  0  0
   -0.5182   -1.0747   -0.3676 C   0  0  0  0  0  0  0  0  0  0  0  0
   -1.2814   -1.9722   -1.2529 C   0  0  0  0  0  0  0  0  0  0  0  0
   -2.2141   -1.6604   -2.2314 C   0  0  0  0  0  0  0  0  0  0  0  0
   -2.7457   -2.8116   -2.8861 C   0  0  0  0  0  0  0  0  0  0  0  0
   -2.2121   -3.9767   -2.3882 C   0  0  0  0  0  0  0  0  0  0  0  0
   -1.0905   -3.6814   -1.1360 S   0  0  0  0  0  0  0  0  0  0  0  0
    0.5458   -1.6200    0.2601 N   0  0  0  0  0  0  0  0  0  0  0  0
    1.2969   -0.8459    1.0832 C   0  0  0  0  0  0  0  0  0  0  0  0
    2.6562   -1.6897    1.8925 S   0  0  0  0  0  0  0  0  0  0  0  0
    2.8644   -3.1337    0.7972 C   0  0  0  0  0  0  0  0  0  0  0  0
    3.2646   -2.7376   -0.6073 C   0  0  0  0  0  0  0  0  0  0  0  0
    3.6372   -1.6486   -1.0214 O   0  0  0  0  0  0  0  0  0  0  0  0
    3.2232   -3.7937   -1.4554 O   0  0  0  0  0  0  0  0  0  0  0  0
   -2.2160    1.9813    2.1368 H   0  0  0  0  0  0  0  0  0  0  0  0
   -2.8906    4.3316    2.4733 H   0  0  0  0  0  0  0  0  0  0  0  0
   -1.5955    6.1660    1.4332 H   0  0  0  0  0  0  0  0  0  0  0  0
    0.3925    5.6496    0.0387 H   0  0  0  0  0  0  0  0  0  0  0  0
    1.0846    3.3123   -0.3183 H   0  0  0  0  0  0  0  0  0  0  0  0
   -1.7304    0.6780   -0.6906 H   0  0  0  0  0  0  0  0  0  0  0  0
   -2.5101   -0.6483   -2.4825 H   0  0  0  0  0  0  0  0  0  0  0  0
   -3.4808   -2.7852   -3.6822 H   0  0  0  0  0  0  0  0  0  0  0  0
   -2.4269   -4.9912   -2.7007 H   0  0  0  0  0  0  0  0  0  0  0  0
    1.9423   -3.7250    0.7717 H   0  0  0  0  0  0  0  0  0  0  0  0
    3.6641   -3.7553    1.2120 H   0  0  0  0  0  0  0  0  0  0  0  0
    3.4917   -3.4109   -2.3217 H   0  0  0  0  0  0  0  0  0  0  0  0
  1  2  3  0
  2  3  1  0
  3  4  2  0
  4  5  1  0
  5  6  2  0
  6  7  1  0
  7  8  2  0
  8  9  1  0
  9 10  2  0
  4 11  1  0
 11 12  2  0
 12 13  1  0
 13 14  2  0
 14 15  1  0
 15 16  2  0
 16 17  1  0
 12 18  1  0
 18 19  2  0
 19 20  1  0
 20 21  1  0
 21 22  1  0
 22 23  2  0
 22 24  1  0
 19  3  1  0
 10  5  1  0
 17 13  1  0
  6 25  1  0
  7 26  1  0
  8 27  1  0
  9 28  1  0
 10 29  1  0
 11 30  1  0
 14 31  1  0
 15 32  1  0
 16 33  1  0
 21 34  1  0
 21 35  1  0
 24 36  1  0
M  END
$$$$
