
     RDKit          3D

 39 40  0  0  0  0  0  0  0  0999 V2000
    6.5792   -0.1095   -2.0028 C   0  0  0  0  0  0  0  0  0  0  0  0
    5.8448   -0.3780   -0.8081 O   0  0  0  0  0  0  0  0  0  0  0  0
    4.9913    0.6130   -0.4536 C   0  0  0  0  0  0  0  0  0  0  0  0
    4.8284    1.6591   -1.0628 O   0  0  0  0  0  0  0  0  0  0  0  0
    4.3405    0.2493    0.6829 N   0  0  0  0  0  0  0  0  0  0  0  0
    3.2576    1.0185    1.2367 C   0  0  0  0  0  0  0  0  0  0  0  0
    1.9239    0.4443    0.8288 C   0  0  0  0  0  0  0  0  0  0  0  0
    1.2244   -0.4197    1.6861 C   0  0  0  0  0  0  0  0  0  0  0  0
    0.0012   -0.9684    1.2955 C   0  0  0  0  0  0  0  0  0  0  0  0
   -0.5218   -0.6545    0.0391 C   0  0  0  0  0  0  0  0  0  0  0  0
   -2.0758   -1.3393   -0.4778 S   0  0  0  0  0  6  0  0  0  0  0  0
   -2.6413   -2.0759    0.6323 O   0  0  0  0  0  0  0  0  0  0  0  0
   -1.8569   -1.9719   -1.7603 O   0  0  0  0  0  0  0  0  0  0  0  0
   -3.0318    0.0476   -0.7212 N   0  0  0  0  0  0  0  0  0  0  0  0
   -3.3577    0.8709    0.4859 C   0  0  0  0  0  0  0  0  0  0  0  0
   -4.5816    0.3324    1.2386 C   0  0  0  0  0  0  0  0  0  0  0  0
   -5.7153    0.1956    0.3706 O   0  0  0  0  0  0  0  0  0  0  0  0
   -5.4157   -0.7030   -0.7079 C   0  0  0  0  0  0  0  0  0  0  0  0
   -4.2580   -0.1653   -1.5521 C   0  0  0  0  0  0  0  0  0  0  0  0
    0.1675    0.1914   -0.8329 C   0  0  0  0  0  0  0  0  0  0  0  0
    1.3878    0.7383   -0.4357 C   0  0  0  0  0  0  0  0  0  0  0  0
    7.2315   -0.9650   -2.1988 H   0  0  0  0  0  0  0  0  0  0  0  0
    5.8997    0.0090   -2.8528 H   0  0  0  0  0  0  0  0  0  0  0  0
    7.2040    0.7804   -1.8777 H   0  0  0  0  0  0  0  0  0  0  0  0
    4.4918   -0.7004    0.9891 H   0  0  0  0  0  0  0  0  0  0  0  0
    3.3278    2.0669    0.9248 H   0  0  0  0  0  0  0  0  0  0  0  0
    3.3656    0.9967    2.3267 H   0  0  0  0  0  0  0  0  0  0  0  0
    1.6311   -0.6738    2.6630 H   0  0  0  0  0  0  0  0  0  0  0  0
   -0.5281   -1.6392    1.9685 H   0  0  0  0  0  0  0  0  0  0  0  0
   -3.5691    1.8865    0.1281 H   0  0  0  0  0  0  0  0  0  0  0  0
   -2.4971    0.9480    1.1562 H   0  0  0  0  0  0  0  0  0  0  0  0
   -4.3826   -0.6301    1.7196 H   0  0  0  0  0  0  0  0  0  0  0  0
   -4.8595    1.0359    2.0302 H   0  0  0  0  0  0  0  0  0  0  0  0
   -5.2011   -1.6979   -0.3025 H   0  0  0  0  0  0  0  0  0  0  0  0
   -6.3155   -0.7842   -1.3258 H   0  0  0  0  0  0  0  0  0  0  0  0
   -4.0500   -0.8282   -2.3973 H   0  0  0  0  0  0  0  0  0  0  0  0
   -4.5317    0.8091   -1.9760 H   0  0  0  0  0  0  0  0  0  0  0  0
   -0.2368    0.4205   -1.8166 H   0  0  0  0  0  0  0  0  0  0  0  0
    1.9295    1.3909   -1.1200 H   0  0  0  0  0  0  0  0  0  0  0  0
  1  2  1  0
  2  3  1  0
  3  4  2  0
  3  5  1  0
  5  6  1  0
  6  7  1  0
  7  8  2  0
  8  9  1  0
  9 10  2  0
 10 11  1  0
 11 12  2  0
 11 13  2  0
 11 14  1  0
 14 15  1  0
 15 16  1  0
 16 17  1  0
 17 18  1  0
 18 19  1  0
 10 20  1  0
 20 21  2  0
 21  7  1  0
 19 14  1  0
  1 22  1  0
  1 23  1  0
  1 24  1  0
  5 25  1  0
  6 26  1  0
  6 27  1  0
  8 28  1  0
  9 29  1  0
 15 30  1  0
 15 31  1  0
 16 32  1  0
 16 33  1  0
 18 34  1  0
 18 35  1  0
 19 36  1  0
 19 37  1  0
 20 38  1  0
 21 39  1  0
M  END
$$$$
