
     RDKit          3D

 38 39  0  0  0  0  0  0  0  0999 V2000
    4.2315   -0.7670   -2.2346 C   0  0  0  0  0  0  0  0  0  0  0  0
    5.1139   -0.3458   -1.0670 C   0  0  0  0  0  0  0  0  0  0  0  0
    4.5014   -0.6683    0.2959 C   0  0  0  0  0  0  0  0  0  0  0  0
    3.3152    0.1660    0.5947 C   0  0  0  0  0  0  0  0  0  0  0  0
    3.2505    1.4025    1.0379 N   0  0  0  0  0  0  0  0  0  0  0  0
    1.9085    1.7055    1.1408 N   0  0  0  0  0  0  0  0  0  0  0  0
    1.2476    0.6324    0.7534 C   0  0  0  0  0  0  0  0  0  0  0  0
   -0.1892    0.3999    0.6607 C   0  0  0  0  0  0  0  0  0  0  0  0
   -1.0750    1.4235    1.0411 C   0  0  0  0  0  0  0  0  0  0  0  0
   -2.4577    1.2427    0.9649 C   0  0  0  0  0  0  0  0  0  0  0  0
   -3.3912    2.1831    1.3156 O   0  0  0  0  0  0  0  0  0  0  0  0
   -2.9235    3.3687    1.9447 C   0  0  0  0  0  0  0  0  0  0  0  0
   -2.9539    0.0210    0.4819 C   0  0  0  0  0  0  0  0  0  0  0  0
   -4.3156   -0.1868    0.4416 O   0  0  0  0  0  0  0  0  0  0  0  0
   -4.8302    0.2238   -0.8239 C   0  0  0  0  0  0  0  0  0  0  0  0
   -2.0901   -1.0247    0.1157 C   0  0  0  0  0  0  0  0  0  0  0  0
   -2.6860   -2.1790   -0.3225 O   0  0  0  0  0  0  0  0  0  0  0  0
   -1.8542   -3.3136   -0.5208 C   0  0  0  0  0  0  0  0  0  0  0  0
   -0.7103   -0.8216    0.2001 C   0  0  0  0  0  0  0  0  0  0  0  0
    2.0830   -0.3942    0.3908 O   0  0  0  0  0  0  0  0  0  0  0  0
    3.2910   -0.2078   -2.2487 H   0  0  0  0  0  0  0  0  0  0  0  0
    3.9976   -1.8352   -2.1843 H   0  0  0  0  0  0  0  0  0  0  0  0
    4.7463   -0.5774   -3.1819 H   0  0  0  0  0  0  0  0  0  0  0  0
    5.3297    0.7267   -1.1452 H   0  0  0  0  0  0  0  0  0  0  0  0
    6.0726   -0.8714   -1.1518 H   0  0  0  0  0  0  0  0  0  0  0  0
    4.2410   -1.7318    0.3510 H   0  0  0  0  0  0  0  0  0  0  0  0
    5.2539   -0.4887    1.0730 H   0  0  0  0  0  0  0  0  0  0  0  0
   -0.6544    2.3614    1.3949 H   0  0  0  0  0  0  0  0  0  0  0  0
   -2.3703    3.1407    2.8619 H   0  0  0  0  0  0  0  0  0  0  0  0
   -2.3187    3.9661    1.2548 H   0  0  0  0  0  0  0  0  0  0  0  0
   -3.7970    3.9662    2.2230 H   0  0  0  0  0  0  0  0  0  0  0  0
   -4.3890   -0.3561   -1.6420 H   0  0  0  0  0  0  0  0  0  0  0  0
   -4.6732    1.2948   -0.9916 H   0  0  0  0  0  0  0  0  0  0  0  0
   -5.9084    0.0377   -0.8225 H   0  0  0  0  0  0  0  0  0  0  0  0
   -1.3072   -3.5712    0.3923 H   0  0  0  0  0  0  0  0  0  0  0  0
   -2.4989   -4.1611   -0.7728 H   0  0  0  0  0  0  0  0  0  0  0  0
   -1.1702   -3.1554   -1.3608 H   0  0  0  0  0  0  0  0  0  0  0  0
   -0.0194   -1.6055   -0.0937 H   0  0  0  0  0  0  0  0  0  0  0  0
  1  2  1  0
  2  3  1  0
  3  4  1  0
  4  5  2  0
  5  6  1  0
  6  7  2  0
  7  8  1  0
  8  9  2  0
  9 10  1  0
 10 11  1  0
 11 12  1  0
 10 13  2  0
 13 14  1  0
 14 15  1  0
 13 16  1  0
 16 17  1  0
 17 18  1  0
 16 19  2  0
  7 20  1  0
 20  4  1  0
 19  8  1  0
  1 21  1  0
  1 22  1  0
  1 23  1  0
  2 24  1  0
  2 25  1  0
  3 26  1  0
  3 27  1  0
  9 28  1  0
 12 29  1  0
 12 30  1  0
 12 31  1  0
 15 32  1  0
 15 33  1  0
 15 34  1  0
 18 35  1  0
 18 36  1  0
 18 37  1  0
 19 38  1  0
M  END
$$$$
