
     RDKit          3D

 39 41  0  0  0  0  0  0  0  0999 V2000
    3.5346    0.0810    2.4460 C   0  0  0  0  0  0  0  0  0  0  0  0
    4.1188   -0.1105    1.0948 C   0  0  0  0  0  0  0  0  0  0  0  0
    5.4500   -0.0877    0.9353 N   0  0  0  0  0  0  0  0  0  0  0  0
    5.6261   -0.3084   -0.3766 N   0  0  0  0  0  0  0  0  0  0  0  0
    6.9642   -0.3621   -0.9128 C   0  0  0  0  0  0  0  0  0  0  0  0
    4.4598   -0.4515   -1.0649 C   0  0  0  0  0  0  0  0  0  0  0  0
    3.4430   -0.3291   -0.1380 C   0  0  0  0  0  0  0  0  0  0  0  0
    2.0329   -0.4180   -0.4414 C   0  0  0  0  0  0  0  0  0  0  0  0
    1.1714   -0.2642    0.5120 N   0  0  0  0  0  0  0  0  0  0  0  0
   -0.1662   -0.3793    0.2133 N   0  0  0  0  0  0  0  0  0  0  0  0
   -0.7185   -1.2320   -0.7360 C   0  0  0  0  0  0  0  0  0  0  0  0
   -0.0735   -1.9591   -1.4857 O   0  0  0  0  0  0  0  0  0  0  0  0
   -2.1881   -1.2461   -0.7357 C   0  0  0  0  0  0  0  0  0  0  0  0
   -2.8807   -2.3991   -1.0719 C   0  0  0  0  0  0  0  0  0  0  0  0
   -4.5745   -2.2218   -0.9817 S   0  0  0  0  0  0  0  0  0  0  0  0
   -4.4288   -0.5875   -0.5453 C   0  0  0  0  0  0  0  0  0  0  0  0
   -3.1123   -0.1659   -0.4560 C   0  0  0  0  0  0  0  0  0  0  0  0
   -2.7816    1.2653   -0.1239 C   0  0  0  0  0  0  0  0  0  0  0  0
   -3.9859    2.1990   -0.3202 C   0  0  0  0  0  0  0  0  0  0  0  0
   -5.2562    1.6094    0.3046 C   0  0  0  0  0  0  0  0  0  0  0  0
   -5.6392    0.2761   -0.3521 C   0  0  0  0  0  0  0  0  0  0  0  0
    2.8992    0.9718    2.4669 H   0  0  0  0  0  0  0  0  0  0  0  0
    4.3133    0.2074    3.2056 H   0  0  0  0  0  0  0  0  0  0  0  0
    2.9317   -0.7876    2.7279 H   0  0  0  0  0  0  0  0  0  0  0  0
    6.9248   -0.6822   -1.9572 H   0  0  0  0  0  0  0  0  0  0  0  0
    7.5447   -1.0796   -0.3270 H   0  0  0  0  0  0  0  0  0  0  0  0
    7.4020    0.6365   -0.8414 H   0  0  0  0  0  0  0  0  0  0  0  0
    4.4443   -0.6265   -2.1314 H   0  0  0  0  0  0  0  0  0  0  0  0
    1.7670   -0.5798   -1.4991 H   0  0  0  0  0  0  0  0  0  0  0  0
   -0.7703   -0.1072    0.9815 H   0  0  0  0  0  0  0  0  0  0  0  0
   -2.4574   -3.3548   -1.3539 H   0  0  0  0  0  0  0  0  0  0  0  0
   -2.4629    1.3171    0.9242 H   0  0  0  0  0  0  0  0  0  0  0  0
   -1.9509    1.6190   -0.7447 H   0  0  0  0  0  0  0  0  0  0  0  0
   -4.1537    2.3657   -1.3920 H   0  0  0  0  0  0  0  0  0  0  0  0
   -3.7669    3.1753    0.1269 H   0  0  0  0  0  0  0  0  0  0  0  0
   -6.0874    2.3174    0.2083 H   0  0  0  0  0  0  0  0  0  0  0  0
   -5.0898    1.4556    1.3788 H   0  0  0  0  0  0  0  0  0  0  0  0
   -6.0932    0.4741   -1.3312 H   0  0  0  0  0  0  0  0  0  0  0  0
   -6.3898   -0.2309    0.2649 H   0  0  0  0  0  0  0  0  0  0  0  0
  1  2  1  0
  2  3  2  0
  3  4  1  0
  4  5  1  0
  4  6  1  0
  6  7  2  0
  7  8  1  0
  8  9  2  3
  9 10  1  0
 10 11  1  0
 11 12  2  0
 11 13  1  0
 13 14  2  0
 14 15  1  0
 15 16  1  0
 16 17  2  0
 17 18  1  0
 18 19  1  0
 19 20  1  0
 20 21  1  0
  7  2  1  0
 17 13  1  0
 21 16  1  0
  1 22  1  0
  1 23  1  0
  1 24  1  0
  5 25  1  0
  5 26  1  0
  5 27  1  0
  6 28  1  0
  8 29  1  0
 10 30  1  0
 14 31  1  0
 18 32  1  0
 18 33  1  0
 19 34  1  0
 19 35  1  0
 20 36  1  0
 20 37  1  0
 21 38  1  0
 21 39  1  0
M  END
$$$$
