
     RDKit          3D

 26 27  0  0  0  0  0  0  0  0999 V2000
    6.1625   -0.0611    0.4426 C   0  0  0  0  0  0  0  0  0  0  0  0
    4.7608    0.1005    0.0235 C   0  0  0  0  0  0  0  0  0  0  0  0
    4.2665    0.5782   -1.0973 N   0  0  0  0  0  0  0  0  0  0  0  0
    2.8948    0.5051   -0.9722 N   0  0  0  0  0  0  0  0  0  0  0  0
    2.6467   -0.0115    0.2147 C   0  0  0  0  0  0  0  0  0  0  0  0
    1.0656   -0.3134    0.8620 S   0  0  0  0  0  0  0  0  0  0  0  0
    0.0429    0.2697   -0.5196 C   0  0  0  0  0  0  0  0  0  0  0  0
   -1.4291    0.1166   -0.2129 C   0  0  0  0  0  0  0  0  0  0  0  0
   -2.1024   -1.0727   -0.5363 C   0  0  0  0  0  0  0  0  0  0  0  0
   -3.4591   -1.2252   -0.2393 C   0  0  0  0  0  0  0  0  0  0  0  0
   -4.1489   -0.1823    0.3910 C   0  0  0  0  0  0  0  0  0  0  0  0
   -5.5742   -0.3384    0.7062 N   0  0  0  0  0  4  0  0  0  0  0  0
   -6.1207   -1.4063    0.3943 O   0  0  0  0  0  0  0  0  0  0  0  0
   -6.1487    0.6072    1.2648 O   0  0  0  0  0  1  0  0  0  0  0  0
   -3.4902    1.0071    0.7258 C   0  0  0  0  0  0  0  0  0  0  0  0
   -2.1334    1.1507    0.4250 C   0  0  0  0  0  0  0  0  0  0  0  0
    3.7955   -0.2949    0.9070 O   0  0  0  0  0  0  0  0  0  0  0  0
    6.3834   -1.1132    0.6453 H   0  0  0  0  0  0  0  0  0  0  0  0
    6.8429    0.2868   -0.3403 H   0  0  0  0  0  0  0  0  0  0  0  0
    6.3607    0.5169    1.3499 H   0  0  0  0  0  0  0  0  0  0  0  0
    0.2863   -0.2951   -1.4273 H   0  0  0  0  0  0  0  0  0  0  0  0
    0.2638    1.3233   -0.7276 H   0  0  0  0  0  0  0  0  0  0  0  0
   -1.5703   -1.8908   -1.0195 H   0  0  0  0  0  0  0  0  0  0  0  0
   -3.9573   -2.1566   -0.5010 H   0  0  0  0  0  0  0  0  0  0  0  0
   -4.0127    1.8238    1.2199 H   0  0  0  0  0  0  0  0  0  0  0  0
   -1.6255    2.0755    0.6953 H   0  0  0  0  0  0  0  0  0  0  0  0
  1  2  1  0
  2  3  2  0
  3  4  1  0
  4  5  2  0
  5  6  1  0
  6  7  1  0
  7  8  1  0
  8  9  2  0
  9 10  1  0
 10 11  2  0
 11 12  1  0
 12 13  2  0
 12 14  1  0
 11 15  1  0
 15 16  2  0
  5 17  1  0
 17  2  1  0
 16  8  1  0
  1 18  1  0
  1 19  1  0
  1 20  1  0
  7 21  1  0
  7 22  1  0
  9 23  1  0
 10 24  1  0
 15 25  1  0
 16 26  1  0
M  CHG  2  12   1  14  -1
M  END
$$$$
