
     RDKit          3D

 69 71  0  0  0  0  0  0  0  0999 V2000
   -7.1596    2.2340   -1.3047 C   0  0  0  0  0  0  0  0  0  0  0  0
   -7.1908    2.6387    0.1616 C   0  0  0  0  0  0  0  0  0  0  0  0
   -6.2494    1.8074    1.0354 C   0  0  0  0  0  0  0  0  0  0  0  0
   -4.8297    1.9468    0.6880 N   0  0  0  0  0  0  0  0  0  0  0  0
   -4.1613    3.1913    1.0878 C   0  0  0  0  0  0  0  0  0  0  0  0
   -3.9693    4.1726   -0.0697 C   0  0  0  0  0  0  0  0  0  0  0  0
   -3.2501    5.4321    0.3879 C   0  0  0  0  0  0  0  0  0  0  0  0
   -4.2001    0.8721    0.0505 C   0  0  0  0  0  0  0  0  0  0  0  0
   -4.8295   -0.1387   -0.2774 O   0  0  0  0  0  0  0  0  0  0  0  0
   -2.7095    1.0137   -0.2999 C   0  0  0  0  0  0  0  0  0  0  0  0
   -2.0921   -0.2864   -0.5743 N   0  0  0  0  0  0  0  0  0  0  0  0
   -1.5719   -0.9857    0.5206 C   0  0  0  0  0  0  0  0  0  0  0  0
   -1.6066   -0.4996    1.6554 O   0  0  0  0  0  0  0  0  0  0  0  0
   -0.9904   -2.2360    0.2738 N   0  0  0  0  0  0  0  0  0  0  0  0
   -0.4160   -2.9586    1.4063 C   0  0  0  0  0  0  0  0  0  0  0  0
    1.1108   -2.8195    1.5036 C   0  0  0  0  0  0  0  0  0  0  0  0
    1.5690   -1.3858    1.7833 C   0  0  0  0  0  0  0  0  0  0  0  0
    3.0678   -1.2714    2.0771 C   0  0  0  0  0  0  0  0  0  0  0  0
    3.9534   -1.6801    0.9004 C   0  0  0  0  0  0  0  0  0  0  0  0
    5.4289   -1.4051    1.1609 C   0  0  0  0  0  0  0  0  0  0  0  0
    5.8227   -0.8882    2.1995 O   0  0  0  0  0  0  0  0  0  0  0  0
    6.2113   -1.8094    0.0902 N   0  0  0  0  0  0  0  0  0  0  0  0
    7.6121   -1.7072   -0.0395 C   0  0  0  0  0  0  0  0  0  0  0  0
    8.4477   -1.1369    0.9226 C   0  0  0  0  0  0  0  0  0  0  0  0
    9.8298   -1.0735    0.7147 C   0  0  0  0  0  0  0  0  0  0  0  0
   10.3880   -1.5797   -0.4564 C   0  0  0  0  0  0  0  0  0  0  0  0
    9.5644   -2.1502   -1.4229 C   0  0  0  0  0  0  0  0  0  0  0  0
    8.1836   -2.2129   -1.2154 C   0  0  0  0  0  0  0  0  0  0  0  0
   -0.8932   -2.8451   -0.9844 C   0  0  0  0  0  0  0  0  0  0  0  0
   -0.3215   -3.9215   -1.1562 O   0  0  0  0  0  0  0  0  0  0  0  0
   -1.5054   -2.0847   -2.0370 C   0  0  0  0  0  0  0  0  0  0  0  0
   -1.5771   -2.6148   -3.6483 S   0  0  0  0  0  0  0  0  0  0  0  0
   -2.4292   -1.2065   -4.1209 C   0  0  0  0  0  0  0  0  0  0  0  0
   -2.6373   -0.3504   -3.0585 C   0  0  0  0  0  0  0  0  0  0  0  0
   -2.0890   -0.8613   -1.8452 C   0  0  0  0  0  0  0  0  0  0  0  0
   -6.1770    2.4156   -1.7500 H   0  0  0  0  0  0  0  0  0  0  0  0
   -7.4012    1.1732   -1.4248 H   0  0  0  0  0  0  0  0  0  0  0  0
   -7.8955    2.8149   -1.8702 H   0  0  0  0  0  0  0  0  0  0  0  0
   -6.9568    3.7044    0.2525 H   0  0  0  0  0  0  0  0  0  0  0  0
   -8.2134    2.5130    0.5370 H   0  0  0  0  0  0  0  0  0  0  0  0
   -6.3632    2.1032    2.0858 H   0  0  0  0  0  0  0  0  0  0  0  0
   -6.5535    0.7552    0.9847 H   0  0  0  0  0  0  0  0  0  0  0  0
   -3.1949    2.9437    1.5372 H   0  0  0  0  0  0  0  0  0  0  0  0
   -4.7501    3.6655    1.8822 H   0  0  0  0  0  0  0  0  0  0  0  0
   -3.3966    3.7120   -0.8796 H   0  0  0  0  0  0  0  0  0  0  0  0
   -4.9376    4.4517   -0.4977 H   0  0  0  0  0  0  0  0  0  0  0  0
   -3.1145    6.1165   -0.4545 H   0  0  0  0  0  0  0  0  0  0  0  0
   -3.8246    5.9523    1.1596 H   0  0  0  0  0  0  0  0  0  0  0  0
   -2.2612    5.1936    0.7942 H   0  0  0  0  0  0  0  0  0  0  0  0
   -2.1655    1.4851    0.5209 H   0  0  0  0  0  0  0  0  0  0  0  0
   -2.6063    1.6542   -1.1798 H   0  0  0  0  0  0  0  0  0  0  0  0
   -0.8771   -2.6311    2.3449 H   0  0  0  0  0  0  0  0  0  0  0  0
   -0.6628   -4.0220    1.2963 H   0  0  0  0  0  0  0  0  0  0  0  0
    1.4625   -3.4730    2.3113 H   0  0  0  0  0  0  0  0  0  0  0  0
    1.5712   -3.1804    0.5777 H   0  0  0  0  0  0  0  0  0  0  0  0
    1.3217   -0.7407    0.9321 H   0  0  0  0  0  0  0  0  0  0  0  0
    1.0226   -0.9957    2.6507 H   0  0  0  0  0  0  0  0  0  0  0  0
    3.3189   -1.8778    2.9564 H   0  0  0  0  0  0  0  0  0  0  0  0
    3.2824   -0.2303    2.3496 H   0  0  0  0  0  0  0  0  0  0  0  0
    3.6586   -1.1243    0.0025 H   0  0  0  0  0  0  0  0  0  0  0  0
    3.8413   -2.7509    0.6980 H   0  0  0  0  0  0  0  0  0  0  0  0
    5.7271   -2.2402   -0.6874 H   0  0  0  0  0  0  0  0  0  0  0  0
    8.0572   -0.7286    1.8493 H   0  0  0  0  0  0  0  0  0  0  0  0
   10.4674   -0.6259    1.4734 H   0  0  0  0  0  0  0  0  0  0  0  0
   11.4621   -1.5287   -0.6138 H   0  0  0  0  0  0  0  0  0  0  0  0
    9.9958   -2.5471   -2.3384 H   0  0  0  0  0  0  0  0  0  0  0  0
    7.5646   -2.6644   -1.9864 H   0  0  0  0  0  0  0  0  0  0  0  0
   -2.7400   -1.0774   -5.1490 H   0  0  0  0  0  0  0  0  0  0  0  0
   -3.1717    0.5848   -3.1656 H   0  0  0  0  0  0  0  0  0  0  0  0
  1  2  1  0
  2  3  1  0
  3  4  1  0
  4  5  1  0
  5  6  1  0
  6  7  1  0
  4  8  1  0
  8  9  2  0
  8 10  1  0
 10 11  1  0
 11 12  1  0
 12 13  2  0
 12 14  1  0
 14 15  1  0
 15 16  1  0
 16 17  1  0
 17 18  1  0
 18 19  1  0
 19 20  1  0
 20 21  2  0
 20 22  1  0
 22 23  1  0
 23 24  2  0
 24 25  1  0
 25 26  2  0
 26 27  1  0
 27 28  2  0
 14 29  1  0
 29 30  2  0
 29 31  1  0
 31 32  1  0
 32 33  1  0
 33 34  2  0
 34 35  1  0
 35 11  1  0
 28 23  1  0
 35 31  2  0
  1 36  1  0
  1 37  1  0
  1 38  1  0
  2 39  1  0
  2 40  1  0
  3 41  1  0
  3 42  1  0
  5 43  1  0
  5 44  1  0
  6 45  1  0
  6 46  1  0
  7 47  1  0
  7 48  1  0
  7 49  1  0
 10 50  1  0
 10 51  1  0
 15 52  1  0
 15 53  1  0
 16 54  1  0
 16 55  1  0
 17 56  1  0
 17 57  1  0
 18 58  1  0
 18 59  1  0
 19 60  1  0
 19 61  1  0
 22 62  1  0
 24 63  1  0
 25 64  1  0
 26 65  1  0
 27 66  1  0
 28 67  1  0
 33 68  1  0
 34 69  1  0
M  END
$$$$
