
     RDKit          3D

 52 55  0  0  0  0  0  0  0  0999 V2000
    9.6364   -0.0062    0.5555 C   0  0  0  0  0  0  0  0  0  0  0  0
    8.1712    0.3554    0.7214 C   0  0  0  0  0  0  0  0  0  0  0  0
    7.4007   -0.5737   -0.0390 O   0  0  0  0  0  0  0  0  0  0  0  0
    6.0416   -0.4393    0.0102 C   0  0  0  0  0  0  0  0  0  0  0  0
    5.3363    0.5535    0.6873 C   0  0  0  0  0  0  0  0  0  0  0  0
    3.9345    0.5757    0.6533 C   0  0  0  0  0  0  0  0  0  0  0  0
    3.2228   -0.3971   -0.0497 C   0  0  0  0  0  0  0  0  0  0  0  0
    1.8160   -0.4308   -0.1396 N   0  0  0  0  0  0  0  0  0  0  0  0
    0.9113    0.2761    0.6217 C   0  0  0  0  0  0  0  0  0  0  0  0
    1.2104    0.9370    1.6137 O   0  0  0  0  0  0  0  0  0  0  0  0
   -0.4123    0.1826    0.1823 N   0  0  0  0  0  0  0  0  0  0  0  0
   -1.4667    0.5088    1.1359 C   0  0  0  0  0  0  0  0  0  0  0  0
   -2.5344    1.3785    0.4973 C   0  0  0  0  0  0  0  0  0  0  0  0
   -3.1340    0.7432   -0.7599 C   0  0  0  0  0  0  0  0  0  0  0  0
   -4.2173   -0.1903   -0.4566 N   0  0  0  0  0  0  0  0  0  0  0  0
   -4.1270   -1.5626   -0.1367 C   0  0  0  0  0  0  0  0  0  0  0  0
   -3.1430   -2.2809   -0.1283 O   0  0  0  0  0  0  0  0  0  0  0  0
   -5.4197   -1.9922    0.1915 N   0  0  0  0  0  0  0  0  0  0  0  0
   -6.2889   -0.9153    0.1210 C   0  0  0  0  0  0  0  0  0  0  0  0
   -7.6381   -0.8758    0.3903 C   0  0  0  0  0  0  0  0  0  0  0  0
   -8.2699    0.3632    0.2600 C   0  0  0  0  0  0  0  0  0  0  0  0
   -7.5434    1.5086   -0.1260 C   0  0  0  0  0  0  0  0  0  0  0  0
   -6.1699    1.4389   -0.3930 C   0  0  0  0  0  0  0  0  0  0  0  0
   -5.5600    0.2076   -0.2672 C   0  0  0  0  0  0  0  0  0  0  0  0
   -2.0507    0.1985   -1.7038 C   0  0  0  0  0  0  0  0  0  0  0  0
   -0.8564   -0.4865   -1.0384 C   0  0  0  0  0  0  0  0  0  0  0  0
    3.9350   -1.3843   -0.7383 C   0  0  0  0  0  0  0  0  0  0  0  0
    5.3327   -1.4043   -0.7055 C   0  0  0  0  0  0  0  0  0  0  0  0
    9.9245    0.0240   -0.5008 H   0  0  0  0  0  0  0  0  0  0  0  0
    9.8230   -1.0263    0.9078 H   0  0  0  0  0  0  0  0  0  0  0  0
   10.2743    0.6831    1.1159 H   0  0  0  0  0  0  0  0  0  0  0  0
    8.0101    1.3745    0.3515 H   0  0  0  0  0  0  0  0  0  0  0  0
    7.9060    0.2928    1.7832 H   0  0  0  0  0  0  0  0  0  0  0  0
    5.8388    1.3328    1.2504 H   0  0  0  0  0  0  0  0  0  0  0  0
    3.4251    1.3756    1.1830 H   0  0  0  0  0  0  0  0  0  0  0  0
    1.4333   -1.2157   -0.6408 H   0  0  0  0  0  0  0  0  0  0  0  0
   -1.8896   -0.4349    1.4980 H   0  0  0  0  0  0  0  0  0  0  0  0
   -1.0635    1.0263    2.0123 H   0  0  0  0  0  0  0  0  0  0  0  0
   -3.3147    1.6084    1.2320 H   0  0  0  0  0  0  0  0  0  0  0  0
   -2.0746    2.3352    0.2150 H   0  0  0  0  0  0  0  0  0  0  0  0
   -3.6119    1.5532   -1.3263 H   0  0  0  0  0  0  0  0  0  0  0  0
   -5.6382   -2.9346    0.4695 H   0  0  0  0  0  0  0  0  0  0  0  0
   -8.1888   -1.7579    0.6934 H   0  0  0  0  0  0  0  0  0  0  0  0
   -9.3358    0.4490    0.4621 H   0  0  0  0  0  0  0  0  0  0  0  0
   -8.0602    2.4622   -0.2166 H   0  0  0  0  0  0  0  0  0  0  0  0
   -5.6266    2.3290   -0.6845 H   0  0  0  0  0  0  0  0  0  0  0  0
   -1.6463    1.0626   -2.2505 H   0  0  0  0  0  0  0  0  0  0  0  0
   -2.4848   -0.4614   -2.4642 H   0  0  0  0  0  0  0  0  0  0  0  0
   -1.0630   -1.5273   -0.7832 H   0  0  0  0  0  0  0  0  0  0  0  0
   -0.0456   -0.5065   -1.7742 H   0  0  0  0  0  0  0  0  0  0  0  0
    3.4183   -2.1530   -1.3061 H   0  0  0  0  0  0  0  0  0  0  0  0
    5.8729   -2.1794   -1.2431 H   0  0  0  0  0  0  0  0  0  0  0  0
  1  2  1  0
  2  3  1  0
  3  4  1  0
  4  5  2  0
  5  6  1  0
  6  7  2  0
  7  8  1  0
  8  9  1  0
  9 10  2  0
  9 11  1  0
 11 12  1  0
 12 13  1  0
 13 14  1  0
 14 15  1  0
 15 16  1  0
 16 17  2  0
 16 18  1  0
 18 19  1  0
 19 20  2  0
 20 21  1  0
 21 22  2  0
 22 23  1  0
 23 24  2  0
 14 25  1  0
 25 26  1  0
  7 27  1  0
 27 28  2  0
 28  4  1  0
 26 11  1  0
 24 15  1  0
 24 19  1  0
  1 29  1  0
  1 30  1  0
  1 31  1  0
  2 32  1  0
  2 33  1  0
  5 34  1  0
  6 35  1  0
  8 36  1  0
 12 37  1  0
 12 38  1  0
 13 39  1  0
 13 40  1  0
 14 41  1  0
 18 42  1  0
 20 43  1  0
 21 44  1  0
 22 45  1  0
 23 46  1  0
 25 47  1  0
 25 48  1  0
 26 49  1  0
 26 50  1  0
 27 51  1  0
 28 52  1  0
M  END
$$$$
