
     RDKit          3D

 45 49  0  0  0  0  0  0  0  0999 V2000
    0.7546    1.2998   -0.0377 O   0  0  0  0  0  0  0  0  0  0  0  0
    0.7184    0.5705   -1.0259 C   0  0  0  0  0  0  0  0  0  0  0  0
   -0.4080    0.5671   -2.0201 C   0  0  0  0  0  0  0  0  0  0  0  0
   -1.7019    0.4008   -1.3784 N   0  0  0  0  0  0  0  0  0  0  0  0
   -2.3195    1.3299   -0.5421 C   0  0  0  0  0  0  0  0  0  0  0  0
   -1.7335    2.4308   -0.0881 O   0  0  0  0  0  0  0  0  0  0  0  0
   -3.5793    0.8568   -0.3329 C   0  0  0  0  0  0  0  0  0  0  0  0
   -3.7166   -0.3900   -0.9765 C   0  0  0  0  0  0  0  0  0  0  0  0
   -2.5472   -0.6798   -1.6126 C   0  0  0  0  0  0  0  0  0  0  0  0
   -2.1666   -1.7196   -2.3413 O   0  0  0  0  0  0  0  0  0  0  0  0
   -5.0966   -0.8858   -0.6805 C   0  0  0  0  0  0  0  0  0  0  0  0
   -5.1602   -1.2447    0.8271 C   0  0  0  0  0  0  0  0  0  0  0  0
   -5.0039    0.1378    1.5424 C   0  0  0  0  0  0  0  0  0  0  0  0
   -4.8676    1.1431    0.3694 C   0  0  0  0  0  0  0  0  0  0  0  0
   -5.8613    0.4791   -0.6407 C   0  0  0  0  0  0  0  0  0  0  0  0
    1.7048   -0.3194   -1.4351 O   0  0  0  0  0  0  0  0  0  0  0  0
    2.7906   -0.3904   -0.5601 C   0  0  0  0  0  0  0  0  0  0  0  0
    2.6872   -1.1200    0.6200 C   0  0  0  0  0  0  0  0  0  0  0  0
    3.7980   -1.2158    1.4583 C   0  0  0  0  0  0  0  0  0  0  0  0
    5.0138   -0.5989    1.1140 C   0  0  0  0  0  0  0  0  0  0  0  0
    6.1389   -0.6880    1.9489 C   0  0  0  0  0  0  0  0  0  0  0  0
    7.3418   -0.0755    1.5933 C   0  0  0  0  0  0  0  0  0  0  0  0
    7.4358    0.6347    0.3996 C   0  0  0  0  0  0  0  0  0  0  0  0
    6.3275    0.7342   -0.4429 C   0  0  0  0  0  0  0  0  0  0  0  0
    5.1097    0.1246   -0.1005 C   0  0  0  0  0  0  0  0  0  0  0  0
    3.9874    0.2168   -0.9371 C   0  0  0  0  0  0  0  0  0  0  0  0
   -0.4166    1.5212   -2.5574 H   0  0  0  0  0  0  0  0  0  0  0  0
   -0.2684   -0.2296   -2.7568 H   0  0  0  0  0  0  0  0  0  0  0  0
   -0.7866    2.2413    0.0864 H   0  0  0  0  0  0  0  0  0  0  0  0
   -2.9269   -2.3287   -2.3731 H   0  0  0  0  0  0  0  0  0  0  0  0
   -5.4945   -1.6329   -1.3667 H   0  0  0  0  0  0  0  0  0  0  0  0
   -6.1290   -1.6879    1.0834 H   0  0  0  0  0  0  0  0  0  0  0  0
   -4.3684   -1.9397    1.1270 H   0  0  0  0  0  0  0  0  0  0  0  0
   -4.1326    0.1464    2.2060 H   0  0  0  0  0  0  0  0  0  0  0  0
   -5.8984    0.3508    2.1384 H   0  0  0  0  0  0  0  0  0  0  0  0
   -5.0619    2.1884    0.6090 H   0  0  0  0  0  0  0  0  0  0  0  0
   -5.8716    0.9842   -1.6146 H   0  0  0  0  0  0  0  0  0  0  0  0
   -6.8834    0.3951   -0.2551 H   0  0  0  0  0  0  0  0  0  0  0  0
    1.7550   -1.6043    0.8941 H   0  0  0  0  0  0  0  0  0  0  0  0
    3.7103   -1.7770    2.3854 H   0  0  0  0  0  0  0  0  0  0  0  0
    6.0863   -1.2382    2.8862 H   0  0  0  0  0  0  0  0  0  0  0  0
    8.2044   -0.1529    2.2500 H   0  0  0  0  0  0  0  0  0  0  0  0
    8.3722    1.1118    0.1229 H   0  0  0  0  0  0  0  0  0  0  0  0
    6.4218    1.2938   -1.3709 H   0  0  0  0  0  0  0  0  0  0  0  0
    4.0416    0.7605   -1.8757 H   0  0  0  0  0  0  0  0  0  0  0  0
  1  2  2  0
  2  3  1  0
  3  4  1  0
  4  5  1  0
  5  6  1  0
  5  7  2  0
  7  8  1  0
  8  9  2  0
  9 10  1  0
  8 11  1  0
 11 12  1  0
 12 13  1  0
 13 14  1  0
 14 15  1  0
  2 16  1  0
 16 17  1  0
 17 18  2  0
 18 19  1  0
 19 20  2  0
 20 21  1  0
 21 22  2  0
 22 23  1  0
 23 24  2  0
 24 25  1  0
 25 26  2  0
  9  4  1  0
 15 11  1  0
 26 17  1  0
 14  7  1  0
 25 20  1  0
  3 27  1  0
  3 28  1  0
  6 29  1  0
 10 30  1  0
 11 31  1  0
 12 32  1  0
 12 33  1  0
 13 34  1  0
 13 35  1  0
 14 36  1  0
 15 37  1  0
 15 38  1  0
 18 39  1  0
 19 40  1  0
 21 41  1  0
 22 42  1  0
 23 43  1  0
 24 44  1  0
 26 45  1  0
M  END
$$$$
