
     RDKit          3D

 75 77  0  0  0  0  0  0  0  0999 V2000
   -2.9521   -6.4159   -1.4345 C   0  0  0  0  0  0  0  0  0  0  0  0
   -1.4542   -6.5585   -1.2295 C   0  0  0  0  0  0  0  0  0  0  0  0
   -0.8048   -5.2938   -1.3185 O   0  0  0  0  0  0  0  0  0  0  0  0
   -0.7527   -4.4923   -0.2124 C   0  0  0  0  0  0  0  0  0  0  0  0
   -1.2438   -4.7983    1.0561 C   0  0  0  0  0  0  0  0  0  0  0  0
   -1.1140   -3.8781    2.0997 C   0  0  0  0  0  0  0  0  0  0  0  0
   -0.5053   -2.6433    1.8771 C   0  0  0  0  0  0  0  0  0  0  0  0
   -0.0295   -2.3146    0.6051 C   0  0  0  0  0  0  0  0  0  0  0  0
    0.5921   -1.0498    0.3602 N   0  0  0  0  0  0  0  0  0  0  0  0
    1.7002   -0.7189    1.1569 C   0  0  0  0  0  0  0  0  0  0  0  0
    2.2554   -1.5181    1.9153 O   0  0  0  0  0  0  0  0  0  0  0  0
    2.2697    0.6822    1.0018 C   0  0  0  0  0  0  0  0  0  0  0  0
    3.4821    0.9014    1.9033 C   0  0  0  0  0  0  0  0  0  0  0  0
    4.1364    2.2422    1.6425 C   0  0  0  0  0  0  0  0  0  0  0  0
    3.7322    3.0115    0.7766 O   0  0  0  0  0  0  0  0  0  0  0  0
    5.2108    2.4569    2.4754 N   0  0  0  0  0  0  0  0  0  0  0  0
    6.0186    3.5717    2.4622 C   0  0  0  0  0  0  0  0  0  0  0  0
    5.9630    4.7120    1.6319 C   0  0  0  0  0  0  0  0  0  0  0  0
    7.0063    5.4984    2.0523 C   0  0  0  0  0  0  0  0  0  0  0  0
    7.5336    6.8120    1.6448 C   0  0  0  0  0  0  0  0  0  0  0  0
    7.6483    4.8743    3.0740 O   0  0  0  0  0  0  0  0  0  0  0  0
    7.0317    3.6632    3.3315 N   0  0  0  0  0  0  0  0  0  0  0  0
   -0.2207   -0.0075   -0.3328 C   0  0  0  0  0  0  0  0  0  0  0  0
   -1.1662    0.7435    0.6643 C   0  0  0  0  0  0  0  0  0  0  0  0
   -1.1334    0.5589    1.8795 O   0  0  0  0  0  0  0  0  0  0  0  0
   -1.9754    1.7081    0.0791 N   0  0  0  0  0  0  0  0  0  0  0  0
   -2.9866    2.5030    0.7948 C   0  0  0  0  0  0  0  0  0  0  0  0
   -3.6518    3.4479   -0.2229 C   0  0  0  0  0  0  0  0  0  0  0  0
   -4.0704    1.5919    1.3924 C   0  0  0  0  0  0  0  0  0  0  0  0
   -2.3456    3.3614    1.8971 C   0  0  0  0  0  0  0  0  0  0  0  0
   -0.9328   -0.4701   -1.6065 C   0  0  0  0  0  0  0  0  0  0  0  0
   -2.2183   -1.0387   -1.5778 C   0  0  0  0  0  0  0  0  0  0  0  0
   -2.8469   -1.4554   -2.7563 C   0  0  0  0  0  0  0  0  0  0  0  0
   -2.2023   -1.3125   -3.9836 C   0  0  0  0  0  0  0  0  0  0  0  0
   -2.7065   -1.6722   -5.2029 O   0  0  0  0  0  0  0  0  0  0  0  0
   -3.9169   -2.4190   -5.1972 C   0  0  0  0  0  0  0  0  0  0  0  0
   -0.9254   -0.7492   -4.0211 C   0  0  0  0  0  0  0  0  0  0  0  0
   -0.2901   -0.3376   -2.8467 C   0  0  0  0  0  0  0  0  0  0  0  0
   -0.1373   -3.2541   -0.4263 C   0  0  0  0  0  0  0  0  0  0  0  0
   -3.1630   -5.9206   -2.3891 H   0  0  0  0  0  0  0  0  0  0  0  0
   -3.4376   -7.3962   -1.4330 H   0  0  0  0  0  0  0  0  0  0  0  0
   -3.4079   -5.8033   -0.6511 H   0  0  0  0  0  0  0  0  0  0  0  0
   -1.0520   -7.1693   -2.0458 H   0  0  0  0  0  0  0  0  0  0  0  0
   -1.2045   -7.0928   -0.3067 H   0  0  0  0  0  0  0  0  0  0  0  0
   -1.7270   -5.7437    1.2741 H   0  0  0  0  0  0  0  0  0  0  0  0
   -1.4832   -4.1243    3.0919 H   0  0  0  0  0  0  0  0  0  0  0  0
   -0.4121   -1.9381    2.7001 H   0  0  0  0  0  0  0  0  0  0  0  0
    1.5047    1.4232    1.2540 H   0  0  0  0  0  0  0  0  0  0  0  0
    2.5669    0.8160   -0.0449 H   0  0  0  0  0  0  0  0  0  0  0  0
    4.2329    0.1211    1.7282 H   0  0  0  0  0  0  0  0  0  0  0  0
    3.1806    0.8545    2.9565 H   0  0  0  0  0  0  0  0  0  0  0  0
    5.4694    1.7694    3.1707 H   0  0  0  0  0  0  0  0  0  0  0  0
    5.2664    4.9339    0.8381 H   0  0  0  0  0  0  0  0  0  0  0  0
    7.1561    7.5965    2.3086 H   0  0  0  0  0  0  0  0  0  0  0  0
    8.6279    6.8242    1.6835 H   0  0  0  0  0  0  0  0  0  0  0  0
    7.2304    7.0541    0.6213 H   0  0  0  0  0  0  0  0  0  0  0  0
    0.4688    0.7797   -0.6606 H   0  0  0  0  0  0  0  0  0  0  0  0
   -2.0352    1.7079   -0.9330 H   0  0  0  0  0  0  0  0  0  0  0  0
   -4.4169    4.0729    0.2504 H   0  0  0  0  0  0  0  0  0  0  0  0
   -4.1341    2.8827   -1.0293 H   0  0  0  0  0  0  0  0  0  0  0  0
   -2.9135    4.1114   -0.6870 H   0  0  0  0  0  0  0  0  0  0  0  0
   -4.8673    2.1800    1.8619 H   0  0  0  0  0  0  0  0  0  0  0  0
   -4.5258    0.9645    0.6165 H   0  0  0  0  0  0  0  0  0  0  0  0
   -3.6650    0.9192    2.1556 H   0  0  0  0  0  0  0  0  0  0  0  0
   -1.5305    3.9748    1.4950 H   0  0  0  0  0  0  0  0  0  0  0  0
   -3.0830    4.0332    2.3513 H   0  0  0  0  0  0  0  0  0  0  0  0
   -1.9285    2.7520    2.7043 H   0  0  0  0  0  0  0  0  0  0  0  0
   -2.7393   -1.1843   -0.6317 H   0  0  0  0  0  0  0  0  0  0  0  0
   -3.8367   -1.8923   -2.6781 H   0  0  0  0  0  0  0  0  0  0  0  0
   -3.8087   -3.3450   -4.6227 H   0  0  0  0  0  0  0  0  0  0  0  0
   -4.1459   -2.6933   -6.2320 H   0  0  0  0  0  0  0  0  0  0  0  0
   -4.7489   -1.8146   -4.8222 H   0  0  0  0  0  0  0  0  0  0  0  0
   -0.4148   -0.6410   -4.9757 H   0  0  0  0  0  0  0  0  0  0  0  0
    0.7125    0.0812   -2.9125 H   0  0  0  0  0  0  0  0  0  0  0  0
    0.2671   -3.0363   -1.4112 H   0  0  0  0  0  0  0  0  0  0  0  0
  1  2  1  0
  2  3  1  0
  3  4  1  0
  4  5  2  0
  5  6  1  0
  6  7  2  0
  7  8  1  0
  8  9  1  0
  9 10  1  0
 10 11  2  0
 10 12  1  0
 12 13  1  0
 13 14  1  0
 14 15  2  0
 14 16  1  0
 16 17  1  0
 17 18  1  0
 18 19  2  0
 19 20  1  0
 19 21  1  0
 21 22  1  0
  9 23  1  0
 23 24  1  0
 24 25  2  0
 24 26  1  0
 26 27  1  0
 27 28  1  0
 27 29  1  0
 27 30  1  0
 23 31  1  0
 31 32  2  0
 32 33  1  0
 33 34  2  0
 34 35  1  0
 35 36  1  0
 34 37  1  0
 37 38  2  0
  8 39  2  0
 39  4  1  0
 22 17  2  0
 38 31  1  0
  1 40  1  0
  1 41  1  0
  1 42  1  0
  2 43  1  0
  2 44  1  0
  5 45  1  0
  6 46  1  0
  7 47  1  0
 12 48  1  0
 12 49  1  0
 13 50  1  0
 13 51  1  0
 16 52  1  0
 18 53  1  0
 20 54  1  0
 20 55  1  0
 20 56  1  0
 23 57  1  0
 26 58  1  0
 28 59  1  0
 28 60  1  0
 28 61  1  0
 29 62  1  0
 29 63  1  0
 29 64  1  0
 30 65  1  0
 30 66  1  0
 30 67  1  0
 32 68  1  0
 33 69  1  0
 36 70  1  0
 36 71  1  0
 36 72  1  0
 37 73  1  0
 38 74  1  0
 39 75  1  0
M  END
$$$$
