
     RDKit          3D

 52 54  0  0  0  0  0  0  0  0999 V2000
    3.8979   -5.1905   -0.6001 C   0  0  0  0  0  0  0  0  0  0  0  0
    4.0711   -4.7306    0.8349 C   0  0  0  0  0  0  0  0  0  0  0  0
    4.5914   -3.3924    0.8632 O   0  0  0  0  0  0  0  0  0  0  0  0
    3.6745   -2.3947    0.8182 C   0  0  0  0  0  0  0  0  0  0  0  0
    2.4612   -2.5446    0.7554 O   0  0  0  0  0  0  0  0  0  0  0  0
    4.3296   -1.0508    0.8623 C   0  0  0  0  0  0  0  0  0  0  0  0
    5.7341   -0.9547    0.8557 C   0  0  0  0  0  0  0  0  0  0  0  0
    6.3602    0.2893    0.8995 C   0  0  0  0  0  0  0  0  0  0  0  0
    5.5917    1.4456    0.9502 C   0  0  0  0  0  0  0  0  0  0  0  0
    4.1958    1.3656    0.9554 C   0  0  0  0  0  0  0  0  0  0  0  0
    3.5426    0.1277    0.9110 C   0  0  0  0  0  0  0  0  0  0  0  0
    2.1270    0.0236    0.9093 N   0  0  0  0  0  0  0  0  0  0  0  0
    1.1829    1.0305    0.9873 C   0  0  0  0  0  0  0  0  0  0  0  0
    1.4113    2.2281    1.1167 O   0  0  0  0  0  0  0  0  0  0  0  0
   -0.2358    0.4911    0.9557 C   0  0  0  0  0  0  0  0  0  0  0  0
   -0.5563   -0.2881   -0.3175 C   0  0  0  0  0  0  0  0  0  0  0  0
   -2.0188   -0.0061   -0.5552 C   0  0  0  0  0  0  0  0  0  0  0  0
   -2.7019   -0.5740   -1.3908 O   0  0  0  0  0  0  0  0  0  0  0  0
   -2.4134    1.0123    0.3042 N   0  0  0  0  0  0  0  0  0  0  0  0
   -3.6812    1.7400    0.2039 C   0  0  0  0  0  0  0  0  0  0  0  0
   -4.9131    0.8222    0.3473 C   0  0  0  0  0  0  0  0  0  0  0  0
   -5.7274    0.7023   -0.9373 C   0  0  0  0  0  0  0  0  0  0  0  0
   -6.1707    2.0639   -1.4714 C   0  0  0  0  0  0  0  0  0  0  0  0
   -5.1357    3.1724   -1.2744 C   0  0  0  0  0  0  0  0  0  0  0  0
   -3.7321    2.6229   -1.0532 C   0  0  0  0  0  0  0  0  0  0  0  0
   -1.2680    1.6064    0.9515 C   0  0  0  0  0  0  0  0  0  0  0  0
    3.5592   -6.2299   -0.6361 H   0  0  0  0  0  0  0  0  0  0  0  0
    3.1695   -4.5667   -1.1277 H   0  0  0  0  0  0  0  0  0  0  0  0
    4.8430   -5.1075   -1.1471 H   0  0  0  0  0  0  0  0  0  0  0  0
    4.8025   -5.3689    1.3420 H   0  0  0  0  0  0  0  0  0  0  0  0
    3.1333   -4.8064    1.3971 H   0  0  0  0  0  0  0  0  0  0  0  0
    6.3578   -1.8440    0.8118 H   0  0  0  0  0  0  0  0  0  0  0  0
    7.4453    0.3555    0.8924 H   0  0  0  0  0  0  0  0  0  0  0  0
    6.0742    2.4201    0.9832 H   0  0  0  0  0  0  0  0  0  0  0  0
    3.6460    2.3016    0.9888 H   0  0  0  0  0  0  0  0  0  0  0  0
    1.7741   -0.9354    0.8598 H   0  0  0  0  0  0  0  0  0  0  0  0
   -0.3891   -0.1492    1.8344 H   0  0  0  0  0  0  0  0  0  0  0  0
   -0.4004   -1.3615   -0.1778 H   0  0  0  0  0  0  0  0  0  0  0  0
    0.0191    0.0606   -1.1811 H   0  0  0  0  0  0  0  0  0  0  0  0
   -3.7012    2.4036    1.0797 H   0  0  0  0  0  0  0  0  0  0  0  0
   -4.6309   -0.1730    0.7095 H   0  0  0  0  0  0  0  0  0  0  0  0
   -5.5695    1.2468    1.1184 H   0  0  0  0  0  0  0  0  0  0  0  0
   -6.6087    0.0739   -0.7645 H   0  0  0  0  0  0  0  0  0  0  0  0
   -5.1337    0.1921   -1.7042 H   0  0  0  0  0  0  0  0  0  0  0  0
   -7.1062    2.3654   -0.9838 H   0  0  0  0  0  0  0  0  0  0  0  0
   -6.4045    1.9634   -2.5385 H   0  0  0  0  0  0  0  0  0  0  0  0
   -5.4222    3.7820   -0.4079 H   0  0  0  0  0  0  0  0  0  0  0  0
   -5.1465    3.8445   -2.1402 H   0  0  0  0  0  0  0  0  0  0  0  0
   -3.4174    2.0616   -1.9416 H   0  0  0  0  0  0  0  0  0  0  0  0
   -3.0215    3.4520   -0.9488 H   0  0  0  0  0  0  0  0  0  0  0  0
   -0.9594    2.4790    0.3650 H   0  0  0  0  0  0  0  0  0  0  0  0
   -1.5301    1.9230    1.9658 H   0  0  0  0  0  0  0  0  0  0  0  0
  1  2  1  0
  2  3  1  0
  3  4  1  0
  4  5  2  0
  4  6  1  0
  6  7  2  0
  7  8  1  0
  8  9  2  0
  9 10  1  0
 10 11  2  0
 11 12  1  0
 12 13  1  0
 13 14  2  0
 13 15  1  0
 15 16  1  0
 16 17  1  0
 17 18  2  0
 17 19  1  0
 19 20  1  0
 20 21  1  0
 21 22  1  0
 22 23  1  0
 23 24  1  0
 24 25  1  0
 19 26  1  0
 11  6  1  0
 26 15  1  0
 25 20  1  0
  1 27  1  0
  1 28  1  0
  1 29  1  0
  2 30  1  0
  2 31  1  0
  7 32  1  0
  8 33  1  0
  9 34  1  0
 10 35  1  0
 12 36  1  0
 15 37  1  0
 16 38  1  0
 16 39  1  0
 20 40  1  0
 21 41  1  0
 21 42  1  0
 22 43  1  0
 22 44  1  0
 23 45  1  0
 23 46  1  0
 24 47  1  0
 24 48  1  0
 25 49  1  0
 25 50  1  0
 26 51  1  0
 26 52  1  0
M  END
$$$$
