
     RDKit          3D

 34 36  0  0  0  0  0  0  0  0999 V2000
    2.6385   -1.8618   -1.2522 O   0  0  0  0  0  0  0  0  0  0  0  0
    2.3302   -0.7317   -0.8819 C   0  0  0  0  0  0  0  0  0  0  0  0
    3.2272    0.4578   -1.1189 C   0  0  0  0  0  0  0  0  0  0  0  0
    3.7847    0.9245    0.1260 N   0  0  0  0  0  0  0  0  0  0  0  0
    4.9888    0.6139    0.6724 C   0  0  0  0  0  0  0  0  0  0  0  0
    5.1246    1.2476    1.8146 N   0  0  0  0  0  0  0  0  0  0  0  0
    3.9531    1.9409    1.9263 C   0  0  0  0  0  0  0  0  0  0  0  0
    3.0923    1.7692    0.9182 N   0  0  0  0  0  0  0  0  0  0  0  0
    1.1421   -0.4400   -0.2490 N   0  0  0  0  0  0  0  0  0  0  0  0
    0.2470   -1.4965    0.1630 C   0  0  0  0  0  0  0  0  0  0  0  0
   -1.0736   -0.9347    0.6314 C   0  0  0  0  0  0  0  0  0  0  0  0
   -1.2839   -0.8145    2.0175 C   0  0  0  0  0  0  0  0  0  0  0  0
   -2.4728   -0.2932    2.5150 C   0  0  0  0  0  0  0  0  0  0  0  0
   -3.4679    0.1226    1.6355 C   0  0  0  0  0  0  0  0  0  0  0  0
   -3.2884    0.0293    0.2479 C   0  0  0  0  0  0  0  0  0  0  0  0
   -4.3027    0.4625   -0.6222 C   0  0  0  0  0  0  0  0  0  0  0  0
   -4.1446    0.3861   -2.0046 C   0  0  0  0  0  0  0  0  0  0  0  0
   -2.9677   -0.1235   -2.5352 C   0  0  0  0  0  0  0  0  0  0  0  0
   -1.9499   -0.5592   -1.6830 C   0  0  0  0  0  0  0  0  0  0  0  0
   -2.0807   -0.4993   -0.2759 C   0  0  0  0  0  0  0  0  0  0  0  0
    2.6663    1.2747   -1.5842 H   0  0  0  0  0  0  0  0  0  0  0  0
    4.0485    0.1771   -1.7859 H   0  0  0  0  0  0  0  0  0  0  0  0
    5.7047   -0.0565    0.2166 H   0  0  0  0  0  0  0  0  0  0  0  0
    3.7218    2.5852    2.7652 H   0  0  0  0  0  0  0  0  0  0  0  0
    1.0924    0.4360    0.2682 H   0  0  0  0  0  0  0  0  0  0  0  0
    0.1090   -2.2147   -0.6532 H   0  0  0  0  0  0  0  0  0  0  0  0
    0.7429   -2.0511    0.9693 H   0  0  0  0  0  0  0  0  0  0  0  0
   -0.5149   -1.1302    2.7202 H   0  0  0  0  0  0  0  0  0  0  0  0
   -2.6252   -0.2091    3.5879 H   0  0  0  0  0  0  0  0  0  0  0  0
   -4.3911    0.5274    2.0450 H   0  0  0  0  0  0  0  0  0  0  0  0
   -5.2315    0.8672   -0.2253 H   0  0  0  0  0  0  0  0  0  0  0  0
   -4.9393    0.7256   -2.6633 H   0  0  0  0  0  0  0  0  0  0  0  0
   -2.8364   -0.1845   -3.6124 H   0  0  0  0  0  0  0  0  0  0  0  0
   -1.0433   -0.9472   -2.1413 H   0  0  0  0  0  0  0  0  0  0  0  0
  1  2  2  0
  2  3  1  0
  3  4  1  0
  4  5  1  0
  5  6  2  0
  6  7  1  0
  7  8  2  0
  2  9  1  0
  9 10  1  0
 10 11  1  0
 11 12  2  0
 12 13  1  0
 13 14  2  0
 14 15  1  0
 15 16  2  0
 16 17  1  0
 17 18  2  0
 18 19  1  0
 19 20  2  0
  8  4  1  0
 20 11  1  0
 20 15  1  0
  3 21  1  0
  3 22  1  0
  5 23  1  0
  7 24  1  0
  9 25  1  0
 10 26  1  0
 10 27  1  0
 12 28  1  0
 13 29  1  0
 14 30  1  0
 16 31  1  0
 17 32  1  0
 18 33  1  0
 19 34  1  0
M  END
$$$$
