
     RDKit          3D

 43 46  0  0  0  0  0  0  0  0999 V2000
    3.9989   -1.2603    1.0722 O   0  0  0  0  0  0  0  0  0  0  0  0
    2.9300   -0.8969    0.6358 C   0  0  0  0  0  0  0  0  0  0  0  0
    2.4984    0.4021    0.0343 C   0  0  0  0  0  0  0  0  0  0  0  0
    3.1762    1.5452   -0.1227 C   0  0  0  0  0  0  0  0  0  0  0  0
    4.4899    1.7851    0.3529 C   0  0  0  0  0  0  0  0  0  0  0  0
    5.4757    2.5909   -0.2079 C   0  0  0  0  0  0  0  0  0  0  0  0
    6.6105    2.5453    0.6366 C   0  0  0  0  0  0  0  0  0  0  0  0
    6.2615    1.7328    1.6836 C   0  0  0  0  0  0  0  0  0  0  0  0
    4.9908    1.2909    1.5335 O   0  0  0  0  0  0  0  0  0  0  0  0
    1.1753    0.2957   -0.4214 O   0  0  0  0  0  0  0  0  0  0  0  0
    0.7460   -0.9705   -0.0929 C   0  0  0  0  0  0  0  0  0  0  0  0
    1.7351   -1.7252    0.5332 C   0  0  0  0  0  0  0  0  0  0  0  0
    1.5368   -3.0323    0.9302 C   0  0  0  0  0  0  0  0  0  0  0  0
    0.2804   -3.5837    0.6826 C   0  0  0  0  0  0  0  0  0  0  0  0
   -0.7223   -2.8197    0.0584 C   0  0  0  0  0  0  0  0  0  0  0  0
   -1.9277   -3.4412   -0.1317 O   0  0  0  0  0  0  0  0  0  0  0  0
   -0.5172   -1.4863   -0.3428 C   0  0  0  0  0  0  0  0  0  0  0  0
   -1.5517   -0.6743   -1.0855 C   0  0  0  0  0  0  0  0  0  0  0  0
   -2.9352   -0.9249   -0.6221 N   0  0  0  0  0  0  0  0  0  0  0  0
   -3.2087   -0.3217    0.6994 C   0  0  0  0  0  0  0  0  0  0  0  0
   -3.3286    1.2048    0.6933 C   0  0  0  0  0  0  0  0  0  0  0  0
   -4.3393    1.6798   -0.3440 C   0  0  0  0  0  0  0  0  0  0  0  0
   -4.0514    1.0620   -1.7073 C   0  0  0  0  0  0  0  0  0  0  0  0
   -3.9272   -0.4599   -1.6088 C   0  0  0  0  0  0  0  0  0  0  0  0
    2.6907    2.3625   -0.6474 H   0  0  0  0  0  0  0  0  0  0  0  0
    5.3831    3.1397   -1.1350 H   0  0  0  0  0  0  0  0  0  0  0  0
    7.5607    3.0408    0.4991 H   0  0  0  0  0  0  0  0  0  0  0  0
    6.7720    1.3871    2.5713 H   0  0  0  0  0  0  0  0  0  0  0  0
    2.3263   -3.6019    1.4084 H   0  0  0  0  0  0  0  0  0  0  0  0
    0.0681   -4.6100    0.9733 H   0  0  0  0  0  0  0  0  0  0  0  0
   -2.5726   -2.7375   -0.3691 H   0  0  0  0  0  0  0  0  0  0  0  0
   -1.3090    0.3929   -1.0452 H   0  0  0  0  0  0  0  0  0  0  0  0
   -1.4611   -0.9750   -2.1380 H   0  0  0  0  0  0  0  0  0  0  0  0
   -2.4498   -0.6254    1.4299 H   0  0  0  0  0  0  0  0  0  0  0  0
   -4.1503   -0.7460    1.0724 H   0  0  0  0  0  0  0  0  0  0  0  0
   -3.6364    1.5508    1.6868 H   0  0  0  0  0  0  0  0  0  0  0  0
   -2.3525    1.6616    0.4932 H   0  0  0  0  0  0  0  0  0  0  0  0
   -4.3207    2.7729   -0.4144 H   0  0  0  0  0  0  0  0  0  0  0  0
   -5.3494    1.3967   -0.0230 H   0  0  0  0  0  0  0  0  0  0  0  0
   -4.8585    1.3195   -2.4028 H   0  0  0  0  0  0  0  0  0  0  0  0
   -3.1309    1.4909   -2.1209 H   0  0  0  0  0  0  0  0  0  0  0  0
   -4.9041   -0.8788   -1.3338 H   0  0  0  0  0  0  0  0  0  0  0  0
   -3.7019   -0.8784   -2.5974 H   0  0  0  0  0  0  0  0  0  0  0  0
  1  2  2  0
  2  3  1  0
  3  4  2  3
  4  5  1  0
  5  6  2  0
  6  7  1  0
  7  8  2  0
  8  9  1  0
  3 10  1  0
 10 11  1  0
 11 12  2  0
 12 13  1  0
 13 14  2  0
 14 15  1  0
 15 16  1  0
 15 17  2  0
 17 18  1  0
 18 19  1  0
 19 20  1  0
 20 21  1  0
 21 22  1  0
 22 23  1  0
 23 24  1  0
 12  2  1  0
 24 19  1  0
  9  5  1  0
 17 11  1  0
  4 25  1  0
  6 26  1  0
  7 27  1  0
  8 28  1  0
 13 29  1  0
 14 30  1  0
 16 31  1  0
 18 32  1  0
 18 33  1  0
 20 34  1  0
 20 35  1  0
 21 36  1  0
 21 37  1  0
 22 38  1  0
 22 39  1  0
 23 40  1  0
 23 41  1  0
 24 42  1  0
 24 43  1  0
M  END
$$$$
