
     RDKit          3D

 35 36  0  0  0  0  0  0  0  0999 V2000
   -4.3901   -2.9737    0.0835 N   0  0  0  0  0  0  0  0  0  0  0  0
   -3.8241   -1.7891   -0.3015 C   0  0  0  0  0  0  0  0  0  0  0  0
   -3.5598   -1.5422   -1.7336 C   0  0  0  0  0  0  0  0  0  0  0  0
   -3.0492   -0.3497   -2.0336 C   0  0  0  0  0  0  0  0  0  0  0  0
   -2.7874    0.5712   -1.0471 N   0  0  0  0  0  0  0  0  0  0  0  0
   -2.1823    1.8541   -1.3932 C   0  0  0  0  0  0  0  0  0  0  0  0
   -0.6625    1.7389   -1.2977 C   0  0  0  0  0  0  0  0  0  0  0  0
    0.0354    1.5026   -2.2798 O   0  0  0  0  0  0  0  0  0  0  0  0
   -0.1703    1.8634   -0.0143 N   0  0  0  0  0  0  0  0  0  0  0  0
    1.2181    1.5831    0.3020 C   0  0  0  0  0  0  0  0  0  0  0  0
    1.4712    0.0862    0.4742 C   0  0  0  0  0  0  0  0  0  0  0  0
    2.8573   -0.1714    1.0032 C   0  0  0  0  0  0  0  0  0  0  0  0
    3.0936   -0.2186    2.3754 C   0  0  0  0  0  0  0  0  0  0  0  0
    4.3941   -0.4271    2.8278 C   0  0  0  0  0  0  0  0  0  0  0  0
    5.4196   -0.5815    1.9044 C   0  0  0  0  0  0  0  0  0  0  0  0
    5.0995   -0.5212    0.5592 C   0  0  0  0  0  0  0  0  0  0  0  0
    3.8485   -0.3155    0.0927 N   0  0  0  0  0  0  0  0  0  0  0  0
   -2.9824    0.2734    0.3026 C   0  0  0  0  0  0  0  0  0  0  0  0
   -2.6320    1.0704    1.1744 O   0  0  0  0  0  0  0  0  0  0  0  0
   -3.5527   -0.9315    0.6318 N   0  0  0  0  0  0  0  0  0  0  0  0
   -4.7263   -2.9448    1.0417 H   0  0  0  0  0  0  0  0  0  0  0  0
   -5.0548   -3.3918   -0.5548 H   0  0  0  0  0  0  0  0  0  0  0  0
   -3.7682   -2.3037   -2.4708 H   0  0  0  0  0  0  0  0  0  0  0  0
   -2.8111   -0.0750   -3.0576 H   0  0  0  0  0  0  0  0  0  0  0  0
   -2.4616    2.1502   -2.4104 H   0  0  0  0  0  0  0  0  0  0  0  0
   -2.5365    2.6375   -0.7129 H   0  0  0  0  0  0  0  0  0  0  0  0
   -0.8498    1.8114    0.7463 H   0  0  0  0  0  0  0  0  0  0  0  0
    1.8566    1.9918   -0.4900 H   0  0  0  0  0  0  0  0  0  0  0  0
    1.4408    2.1282    1.2258 H   0  0  0  0  0  0  0  0  0  0  0  0
    0.7289   -0.3529    1.1530 H   0  0  0  0  0  0  0  0  0  0  0  0
    1.3458   -0.4298   -0.4859 H   0  0  0  0  0  0  0  0  0  0  0  0
    2.2821   -0.0930    3.0853 H   0  0  0  0  0  0  0  0  0  0  0  0
    4.6045   -0.4669    3.8927 H   0  0  0  0  0  0  0  0  0  0  0  0
    6.4422   -0.7455    2.2232 H   0  0  0  0  0  0  0  0  0  0  0  0
    5.8630   -0.6374   -0.2043 H   0  0  0  0  0  0  0  0  0  0  0  0
  1  2  1  0
  2  3  1  0
  3  4  2  0
  4  5  1  0
  5  6  1  0
  6  7  1  0
  7  8  2  0
  7  9  1  0
  9 10  1  0
 10 11  1  0
 11 12  1  0
 12 13  2  0
 13 14  1  0
 14 15  2  0
 15 16  1  0
 16 17  2  0
  5 18  1  0
 18 19  2  0
 18 20  1  0
 20  2  2  0
 17 12  1  0
  1 21  1  0
  1 22  1  0
  3 23  1  0
  4 24  1  0
  6 25  1  0
  6 26  1  0
  9 27  1  0
 10 28  1  0
 10 29  1  0
 11 30  1  0
 11 31  1  0
 13 32  1  0
 14 33  1  0
 15 34  1  0
 16 35  1  0
M  END
$$$$
