
     RDKit          3D

 60 64  0  0  0  0  0  0  0  0999 V2000
    3.5522   -0.7445   -3.2737 C   0  0  0  0  0  0  0  0  0  0  0  0
    3.9316   -1.2516   -1.9961 O   0  0  0  0  0  0  0  0  0  0  0  0
    5.2184   -0.9414   -1.6306 C   0  0  0  0  0  0  0  0  0  0  0  0
    6.2849   -1.1500   -2.5181 C   0  0  0  0  0  0  0  0  0  0  0  0
    7.5979   -0.8987   -2.1201 C   0  0  0  0  0  0  0  0  0  0  0  0
    7.8579   -0.4554   -0.8288 C   0  0  0  0  0  0  0  0  0  0  0  0
    6.8027   -0.2663    0.0654 C   0  0  0  0  0  0  0  0  0  0  0  0
    5.4677   -0.5036   -0.3159 C   0  0  0  0  0  0  0  0  0  0  0  0
    4.4219   -0.2799    0.6839 C   0  0  0  0  0  0  0  0  0  0  0  0
    4.5433   -0.2021    1.9962 N   0  0  0  0  0  0  0  0  0  0  0  0
    3.2554    0.0425    2.4235 C   0  0  0  0  0  0  0  0  0  0  0  0
    2.9633    0.1613    3.8132 C   0  0  0  0  0  0  0  0  0  0  0  0
    2.6983    0.2611    4.9402 N   0  0  0  0  0  0  0  0  0  0  0  0
    2.3845    0.1287    1.3528 C   0  0  0  0  0  0  0  0  0  0  0  0
    1.0577    0.3536    1.1503 N   0  0  0  0  0  0  0  0  0  0  0  0
    0.1182    0.5415    2.2587 C   0  0  0  0  0  0  0  0  0  0  0  0
   -1.1514    1.3192    1.8230 C   0  0  0  0  0  0  0  0  0  0  0  0
   -1.7352    0.9423    0.5272 N   0  0  0  0  0  0  0  0  0  0  0  0
   -3.2128    0.9470    0.4872 C   0  0  0  0  0  0  0  0  0  0  0  0
   -3.8378   -0.3218    1.0866 C   0  0  0  0  0  0  0  0  0  0  0  0
   -4.2699   -0.3299    2.4242 C   0  0  0  0  0  0  0  0  0  0  0  0
   -4.8291   -1.4780    2.9896 C   0  0  0  0  0  0  0  0  0  0  0  0
   -4.9678   -2.6356    2.2279 C   0  0  0  0  0  0  0  0  0  0  0  0
   -4.5501   -2.6472    0.8999 C   0  0  0  0  0  0  0  0  0  0  0  0
   -3.9899   -1.5006    0.3336 C   0  0  0  0  0  0  0  0  0  0  0  0
   -3.7889    1.3636   -0.8834 C   0  0  0  0  0  0  0  0  0  0  0  0
   -5.1648    1.2234   -1.1533 C   0  0  0  0  0  0  0  0  0  0  0  0
   -5.7112    1.6364   -2.3717 C   0  0  0  0  0  0  0  0  0  0  0  0
   -4.8985    2.2211   -3.3381 C   0  0  0  0  0  0  0  0  0  0  0  0
   -3.5431    2.4053   -3.0813 C   0  0  0  0  0  0  0  0  0  0  0  0
   -2.9974    1.9920   -1.8626 C   0  0  0  0  0  0  0  0  0  0  0  0
   -1.0531   -0.1990   -0.0869 C   0  0  0  0  0  0  0  0  0  0  0  0
    0.4729    0.0309   -0.1642 C   0  0  0  0  0  0  0  0  0  0  0  0
    3.1505   -0.0649    0.2313 O   0  0  0  0  0  0  0  0  0  0  0  0
    3.8981   -1.4109   -4.0705 H   0  0  0  0  0  0  0  0  0  0  0  0
    2.4588   -0.7203   -3.3107 H   0  0  0  0  0  0  0  0  0  0  0  0
    3.9162    0.2769   -3.4343 H   0  0  0  0  0  0  0  0  0  0  0  0
    6.1112   -1.5375   -3.5175 H   0  0  0  0  0  0  0  0  0  0  0  0
    8.4180   -1.0661   -2.8135 H   0  0  0  0  0  0  0  0  0  0  0  0
    8.8801   -0.2662   -0.5106 H   0  0  0  0  0  0  0  0  0  0  0  0
    7.0260    0.0716    1.0770 H   0  0  0  0  0  0  0  0  0  0  0  0
   -0.1693   -0.4399    2.6559 H   0  0  0  0  0  0  0  0  0  0  0  0
    0.5766    1.1113    3.0732 H   0  0  0  0  0  0  0  0  0  0  0  0
   -1.8745    1.2397    2.6418 H   0  0  0  0  0  0  0  0  0  0  0  0
   -0.8901    2.3824    1.7517 H   0  0  0  0  0  0  0  0  0  0  0  0
   -3.5393    1.7873    1.1196 H   0  0  0  0  0  0  0  0  0  0  0  0
   -4.1771    0.5633    3.0380 H   0  0  0  0  0  0  0  0  0  0  0  0
   -5.1569   -1.4688    4.0263 H   0  0  0  0  0  0  0  0  0  0  0  0
   -5.4030   -3.5286    2.6690 H   0  0  0  0  0  0  0  0  0  0  0  0
   -4.6612   -3.5484    0.3022 H   0  0  0  0  0  0  0  0  0  0  0  0
   -3.6756   -1.5288   -0.7084 H   0  0  0  0  0  0  0  0  0  0  0  0
   -5.8314    0.7888   -0.4104 H   0  0  0  0  0  0  0  0  0  0  0  0
   -6.7742    1.5071   -2.5602 H   0  0  0  0  0  0  0  0  0  0  0  0
   -5.3233    2.5454   -4.2842 H   0  0  0  0  0  0  0  0  0  0  0  0
   -2.9082    2.8804   -3.8246 H   0  0  0  0  0  0  0  0  0  0  0  0
   -1.9406    2.1767   -1.6818 H   0  0  0  0  0  0  0  0  0  0  0  0
   -1.4174   -0.3708   -1.1056 H   0  0  0  0  0  0  0  0  0  0  0  0
   -1.2326   -1.1173    0.4853 H   0  0  0  0  0  0  0  0  0  0  0  0
    0.9249   -0.8804   -0.5767 H   0  0  0  0  0  0  0  0  0  0  0  0
    0.6864    0.8536   -0.8580 H   0  0  0  0  0  0  0  0  0  0  0  0
  1  2  1  0
  2  3  1  0
  3  4  2  0
  4  5  1  0
  5  6  2  0
  6  7  1  0
  7  8  2  0
  8  9  1  0
  9 10  2  0
 10 11  1  0
 11 12  1  0
 12 13  3  0
 11 14  2  0
 14 15  1  0
 15 16  1  0
 16 17  1  0
 17 18  1  0
 18 19  1  0
 19 20  1  0
 20 21  2  0
 21 22  1  0
 22 23  2  0
 23 24  1  0
 24 25  2  0
 19 26  1  0
 26 27  2  0
 27 28  1  0
 28 29  2  0
 29 30  1  0
 30 31  2  0
 18 32  1  0
 32 33  1  0
 14 34  1  0
  8  3  1  0
 34  9  1  0
 33 15  1  0
 25 20  1  0
 31 26  1  0
  1 35  1  0
  1 36  1  0
  1 37  1  0
  4 38  1  0
  5 39  1  0
  6 40  1  0
  7 41  1  0
 16 42  1  0
 16 43  1  0
 17 44  1  0
 17 45  1  0
 19 46  1  0
 21 47  1  0
 22 48  1  0
 23 49  1  0
 24 50  1  0
 25 51  1  0
 27 52  1  0
 28 53  1  0
 29 54  1  0
 30 55  1  0
 31 56  1  0
 32 57  1  0
 32 58  1  0
 33 59  1  0
 33 60  1  0
M  END
$$$$
