
     RDKit          3D

 47 49  0  0  0  0  0  0  0  0999 V2000
    7.0507   -0.2923   -0.9673 C   0  0  0  0  0  0  0  0  0  0  0  0
    6.0836    0.6402   -0.2540 C   0  0  0  0  0  0  0  0  0  0  0  0
    5.5230    0.0517    1.0427 C   0  0  0  0  0  0  0  0  0  0  0  0
    4.5475   -1.1173    0.8595 C   0  0  0  0  0  0  0  0  0  0  0  0
    3.3008   -0.7597    0.1827 N   0  0  0  0  0  0  0  0  0  0  0  0
    2.3932    0.1458    0.8707 C   0  0  0  0  0  0  0  0  0  0  0  0
    1.0402    0.2257    0.2511 C   0  0  0  0  0  0  0  0  0  0  0  0
   -0.0588    0.7831    0.9103 C   0  0  0  0  0  0  0  0  0  0  0  0
   -1.2779    0.8876    0.2389 C   0  0  0  0  0  0  0  0  0  0  0  0
   -2.4355    1.4970    0.9223 C   0  0  0  0  0  0  0  0  0  0  0  0
   -2.2374    2.4377    1.6914 O   0  0  0  0  0  0  0  0  0  0  0  0
   -3.8308    1.0404    0.7043 C   0  0  0  0  0  0  0  0  0  0  0  0
   -4.1211   -0.2847    0.3553 C   0  0  0  0  0  0  0  0  0  0  0  0
   -5.4432   -0.6918    0.1416 C   0  0  0  0  0  0  0  0  0  0  0  0
   -5.5798   -2.0078   -0.2045 O   0  0  0  0  0  0  0  0  0  0  0  0
   -6.9027   -2.4826   -0.4265 C   0  0  0  0  0  0  0  0  0  0  0  0
   -6.4813    0.2287    0.2904 C   0  0  0  0  0  0  0  0  0  0  0  0
   -6.2019    1.5446    0.6674 C   0  0  0  0  0  0  0  0  0  0  0  0
   -4.8865    1.9425    0.8861 C   0  0  0  0  0  0  0  0  0  0  0  0
   -4.6993    3.2395    1.2816 O   0  0  0  0  0  0  0  0  0  0  0  0
   -1.3300    0.4768   -1.0860 C   0  0  0  0  0  0  0  0  0  0  0  0
   -0.2781   -0.0650   -1.7462 N   0  0  0  0  0  0  0  0  0  0  0  0
    0.8768   -0.1833   -1.0595 C   0  0  0  0  0  0  0  0  0  0  0  0
    1.9471   -0.7512   -1.7190 N   0  0  0  0  0  0  0  0  0  0  0  0
    3.1332   -1.0878   -1.1478 C   0  0  0  0  0  0  0  0  0  0  0  0
    3.9760   -1.6851   -1.8140 O   0  0  0  0  0  0  0  0  0  0  0  0
    6.5623   -1.2139   -1.2934 H   0  0  0  0  0  0  0  0  0  0  0  0
    7.8875   -0.5609   -0.3146 H   0  0  0  0  0  0  0  0  0  0  0  0
    7.4607    0.2000   -1.8550 H   0  0  0  0  0  0  0  0  0  0  0  0
    6.6211    1.5641   -0.0079 H   0  0  0  0  0  0  0  0  0  0  0  0
    5.2720    0.9247   -0.9321 H   0  0  0  0  0  0  0  0  0  0  0  0
    5.0285    0.8549    1.6015 H   0  0  0  0  0  0  0  0  0  0  0  0
    6.3569   -0.2861    1.6706 H   0  0  0  0  0  0  0  0  0  0  0  0
    4.2720   -1.5097    1.8459 H   0  0  0  0  0  0  0  0  0  0  0  0
    5.0395   -1.9401    0.3304 H   0  0  0  0  0  0  0  0  0  0  0  0
    2.3005   -0.1982    1.9072 H   0  0  0  0  0  0  0  0  0  0  0  0
    2.8438    1.1444    0.8653 H   0  0  0  0  0  0  0  0  0  0  0  0
    0.0333    1.1419    1.9333 H   0  0  0  0  0  0  0  0  0  0  0  0
   -3.3348   -1.0295    0.2588 H   0  0  0  0  0  0  0  0  0  0  0  0
   -7.5090   -2.4000    0.4816 H   0  0  0  0  0  0  0  0  0  0  0  0
   -7.3731   -1.9605   -1.2661 H   0  0  0  0  0  0  0  0  0  0  0  0
   -6.8373   -3.5431   -0.6881 H   0  0  0  0  0  0  0  0  0  0  0  0
   -7.5196   -0.0450    0.1327 H   0  0  0  0  0  0  0  0  0  0  0  0
   -7.0113    2.2582    0.8004 H   0  0  0  0  0  0  0  0  0  0  0  0
   -3.7709    3.3269    1.5954 H   0  0  0  0  0  0  0  0  0  0  0  0
   -2.2285    0.5805   -1.6884 H   0  0  0  0  0  0  0  0  0  0  0  0
    1.7986   -1.0407   -2.6739 H   0  0  0  0  0  0  0  0  0  0  0  0
  1  2  1  0
  2  3  1  0
  3  4  1  0
  4  5  1  0
  5  6  1  0
  6  7  1  0
  7  8  2  0
  8  9  1  0
  9 10  1  0
 10 11  2  0
 10 12  1  0
 12 13  2  0
 13 14  1  0
 14 15  1  0
 15 16  1  0
 14 17  2  0
 17 18  1  0
 18 19  2  0
 19 20  1  0
  9 21  2  0
 21 22  1  0
 22 23  2  0
 23 24  1  0
 24 25  1  0
 25 26  2  0
 25  5  1  0
 23  7  1  0
 19 12  1  0
  1 27  1  0
  1 28  1  0
  1 29  1  0
  2 30  1  0
  2 31  1  0
  3 32  1  0
  3 33  1  0
  4 34  1  0
  4 35  1  0
  6 36  1  0
  6 37  1  0
  8 38  1  0
 13 39  1  0
 16 40  1  0
 16 41  1  0
 16 42  1  0
 17 43  1  0
 18 44  1  0
 20 45  1  0
 21 46  1  0
 24 47  1  0
M  END
$$$$
