
     RDKit          3D

 46 47  0  0  0  0  0  0  0  0999 V2000
    4.7217   -3.3895   -0.0595 O   0  0  0  0  0  0  0  0  0  0  0  0
    5.7699   -2.8322   -0.3400 C   0  0  0  0  0  0  0  0  0  0  0  0
    6.5657   -3.3087   -1.3158 O   0  0  0  0  0  0  0  0  0  0  0  0
    6.3640   -1.6304    0.3409 C   0  0  0  0  0  0  0  0  0  0  0  0
    5.3212   -0.9202    1.1965 C   0  0  0  0  0  0  0  0  0  0  0  0
    4.2831   -0.1997    0.3490 C   0  0  0  0  0  0  0  0  0  0  0  0
    4.4378   -0.0294   -0.8547 O   0  0  0  0  0  0  0  0  0  0  0  0
    3.2140    0.2375    1.1138 N   0  0  0  0  0  0  0  0  0  0  0  0
    2.0887    0.9675    0.6790 C   0  0  0  0  0  0  0  0  0  0  0  0
    1.0957    1.2361    1.6329 C   0  0  0  0  0  0  0  0  0  0  0  0
   -0.0551    1.9495    1.2863 C   0  0  0  0  0  0  0  0  0  0  0  0
   -0.2167    2.3950   -0.0263 C   0  0  0  0  0  0  0  0  0  0  0  0
   -1.6783    3.3042   -0.4645 S   0  0  0  0  0  6  0  0  0  0  0  0
   -2.0970    4.0487    0.7024 O   0  0  0  0  0  0  0  0  0  0  0  0
   -1.4491    3.9454   -1.7397 O   0  0  0  0  0  0  0  0  0  0  0  0
   -2.8095    2.0853   -0.6877 N   0  0  0  0  0  0  0  0  0  0  0  0
   -2.5680    1.0600   -1.7136 C   0  0  0  0  0  0  0  0  0  0  0  0
   -3.8649    0.3033   -2.0229 C   0  0  0  0  0  0  0  0  0  0  0  0
   -4.3655   -0.5108   -0.8511 C   0  0  0  0  0  0  0  0  0  0  0  0
   -5.4518   -0.0616   -0.0875 C   0  0  0  0  0  0  0  0  0  0  0  0
   -5.8986   -0.7998    1.0091 C   0  0  0  0  0  0  0  0  0  0  0  0
   -5.2655   -1.9928    1.3522 C   0  0  0  0  0  0  0  0  0  0  0  0
   -4.1861   -2.4498    0.5985 C   0  0  0  0  0  0  0  0  0  0  0  0
   -3.7370   -1.7130   -0.4984 C   0  0  0  0  0  0  0  0  0  0  0  0
    0.7717    2.1561   -0.9815 C   0  0  0  0  0  0  0  0  0  0  0  0
    1.9185    1.4372   -0.6266 C   0  0  0  0  0  0  0  0  0  0  0  0
    6.0652   -4.0639   -1.6891 H   0  0  0  0  0  0  0  0  0  0  0  0
    7.1832   -1.9811    0.9777 H   0  0  0  0  0  0  0  0  0  0  0  0
    6.7735   -0.9533   -0.4165 H   0  0  0  0  0  0  0  0  0  0  0  0
    4.8181   -1.6296    1.8640 H   0  0  0  0  0  0  0  0  0  0  0  0
    5.8184   -0.1646    1.8160 H   0  0  0  0  0  0  0  0  0  0  0  0
    3.2184   -0.0281    2.0908 H   0  0  0  0  0  0  0  0  0  0  0  0
    1.2030    0.8944    2.6596 H   0  0  0  0  0  0  0  0  0  0  0  0
   -0.8120    2.1546    2.0402 H   0  0  0  0  0  0  0  0  0  0  0  0
   -3.2466    1.7783    0.1819 H   0  0  0  0  0  0  0  0  0  0  0  0
   -1.8008    0.3632   -1.3601 H   0  0  0  0  0  0  0  0  0  0  0  0
   -2.2124    1.5323   -2.6353 H   0  0  0  0  0  0  0  0  0  0  0  0
   -3.6982   -0.3736   -2.8703 H   0  0  0  0  0  0  0  0  0  0  0  0
   -4.6413    1.0090   -2.3448 H   0  0  0  0  0  0  0  0  0  0  0  0
   -5.9573    0.8681   -0.3422 H   0  0  0  0  0  0  0  0  0  0  0  0
   -6.7433   -0.4451    1.5942 H   0  0  0  0  0  0  0  0  0  0  0  0
   -5.6167   -2.5689    2.2044 H   0  0  0  0  0  0  0  0  0  0  0  0
   -3.6956   -3.3830    0.8635 H   0  0  0  0  0  0  0  0  0  0  0  0
   -2.8950   -2.0866   -1.0772 H   0  0  0  0  0  0  0  0  0  0  0  0
    0.6642    2.5212   -2.0010 H   0  0  0  0  0  0  0  0  0  0  0  0
    2.6662    1.2687   -1.3960 H   0  0  0  0  0  0  0  0  0  0  0  0
  1  2  2  0
  2  3  1  0
  2  4  1  0
  4  5  1  0
  5  6  1  0
  6  7  2  0
  6  8  1  0
  8  9  1  0
  9 10  2  0
 10 11  1  0
 11 12  2  0
 12 13  1  0
 13 14  2  0
 13 15  2  0
 13 16  1  0
 16 17  1  0
 17 18  1  0
 18 19  1  0
 19 20  2  0
 20 21  1  0
 21 22  2  0
 22 23  1  0
 23 24  2  0
 12 25  1  0
 25 26  2  0
 26  9  1  0
 24 19  1  0
  3 27  1  0
  4 28  1  0
  4 29  1  0
  5 30  1  0
  5 31  1  0
  8 32  1  0
 10 33  1  0
 11 34  1  0
 16 35  1  0
 17 36  1  0
 17 37  1  0
 18 38  1  0
 18 39  1  0
 20 40  1  0
 21 41  1  0
 22 42  1  0
 23 43  1  0
 24 44  1  0
 25 45  1  0
 26 46  1  0
M  END
$$$$
