
     RDKit          3D

 55 58  0  0  0  0  0  0  0  0999 V2000
    3.2952   -3.7875   -4.4029 C   0  0  0  0  0  0  0  0  0  0  0  0
    2.3083   -3.0012   -3.7488 O   0  0  0  0  0  0  0  0  0  0  0  0
    2.5825   -2.5682   -2.4777 C   0  0  0  0  0  0  0  0  0  0  0  0
    3.7596   -2.8563   -1.7819 C   0  0  0  0  0  0  0  0  0  0  0  0
    3.9737   -2.3313   -0.5060 C   0  0  0  0  0  0  0  0  0  0  0  0
    3.0183   -1.5076    0.0862 C   0  0  0  0  0  0  0  0  0  0  0  0
    1.8193   -1.2119   -0.5794 C   0  0  0  0  0  0  0  0  0  0  0  0
    0.7869   -0.2909    0.0342 C   0  0  0  0  0  0  0  0  0  0  0  0
    1.0260    1.1578   -0.4086 C   0  0  0  0  0  0  0  0  0  0  0  0
    0.7360    1.9394    0.8453 C   0  0  0  0  0  0  0  0  0  0  0  0
    0.6094    3.4159    0.8297 C   0  0  0  0  0  0  0  0  0  0  0  0
    0.8277    4.1562   -0.3378 C   0  0  0  0  0  0  0  0  0  0  0  0
    0.6969    5.5474   -0.3186 C   0  0  0  0  0  0  0  0  0  0  0  0
    0.3507    6.2028    0.8623 C   0  0  0  0  0  0  0  0  0  0  0  0
    0.1358    5.4707    2.0284 C   0  0  0  0  0  0  0  0  0  0  0  0
    0.2652    4.0807    2.0139 C   0  0  0  0  0  0  0  0  0  0  0  0
    0.6249    1.2336    1.9285 N   0  0  0  0  0  0  0  0  0  0  0  0
    0.8132   -0.1982    1.5189 N   0  0  0  0  0  0  0  0  0  0  0  0
   -0.0605   -1.4005    2.3862 S   0  0  0  0  0  6  0  0  0  0  0  0
    0.1784   -2.6885    1.7636 O   0  0  0  0  0  0  0  0  0  0  0  0
    0.1565   -1.2186    3.8081 O   0  0  0  0  0  0  0  0  0  0  0  0
   -1.7574   -0.9613    2.0559 C   0  0  0  0  0  0  0  0  0  0  0  0
   -2.3324    0.1092    2.7450 C   0  0  0  0  0  0  0  0  0  0  0  0
   -3.6620    0.4526    2.4978 C   0  0  0  0  0  0  0  0  0  0  0  0
   -4.4272   -0.2842    1.5832 C   0  0  0  0  0  0  0  0  0  0  0  0
   -5.8481    0.1064    1.2985 C   0  0  0  0  0  0  0  0  0  0  0  0
   -3.8390   -1.3597    0.9028 C   0  0  0  0  0  0  0  0  0  0  0  0
   -2.5091   -1.7080    1.1447 C   0  0  0  0  0  0  0  0  0  0  0  0
    1.6070   -1.7626   -1.8578 C   0  0  0  0  0  0  0  0  0  0  0  0
    0.4348   -1.4141   -2.4918 O   0  0  0  0  0  0  0  0  0  0  0  0
   -0.3788   -2.5554   -2.7718 C   0  0  0  0  0  0  0  0  0  0  0  0
    3.4654   -4.7294   -3.8711 H   0  0  0  0  0  0  0  0  0  0  0  0
    2.9184   -4.0335   -5.4004 H   0  0  0  0  0  0  0  0  0  0  0  0
    4.2277   -3.2277   -4.5290 H   0  0  0  0  0  0  0  0  0  0  0  0
    4.5384   -3.4818   -2.2048 H   0  0  0  0  0  0  0  0  0  0  0  0
    4.8932   -2.5600    0.0280 H   0  0  0  0  0  0  0  0  0  0  0  0
    3.2169   -1.1011    1.0768 H   0  0  0  0  0  0  0  0  0  0  0  0
   -0.2214   -0.5875   -0.2749 H   0  0  0  0  0  0  0  0  0  0  0  0
    0.3516    1.4354   -1.2241 H   0  0  0  0  0  0  0  0  0  0  0  0
    2.0618    1.3501   -0.7104 H   0  0  0  0  0  0  0  0  0  0  0  0
    1.1058    3.6779   -1.2722 H   0  0  0  0  0  0  0  0  0  0  0  0
    0.8682    6.1220   -1.2260 H   0  0  0  0  0  0  0  0  0  0  0  0
    0.2514    7.2856    0.8749 H   0  0  0  0  0  0  0  0  0  0  0  0
   -0.1301    5.9808    2.9511 H   0  0  0  0  0  0  0  0  0  0  0  0
    0.0980    3.5240    2.9339 H   0  0  0  0  0  0  0  0  0  0  0  0
   -1.7482    0.6777    3.4660 H   0  0  0  0  0  0  0  0  0  0  0  0
   -4.1000    1.2952    3.0289 H   0  0  0  0  0  0  0  0  0  0  0  0
   -6.4446   -0.7675    1.0161 H   0  0  0  0  0  0  0  0  0  0  0  0
   -5.8789    0.8348    0.4824 H   0  0  0  0  0  0  0  0  0  0  0  0
   -6.3172    0.5467    2.1847 H   0  0  0  0  0  0  0  0  0  0  0  0
   -4.4186   -1.9377    0.1860 H   0  0  0  0  0  0  0  0  0  0  0  0
   -2.0717   -2.5559    0.6227 H   0  0  0  0  0  0  0  0  0  0  0  0
   -0.2342   -3.3689   -2.0510 H   0  0  0  0  0  0  0  0  0  0  0  0
   -1.4244   -2.2380   -2.7099 H   0  0  0  0  0  0  0  0  0  0  0  0
   -0.1990   -2.9078   -3.7913 H   0  0  0  0  0  0  0  0  0  0  0  0
  1  2  1  0
  2  3  1  0
  3  4  2  0
  4  5  1  0
  5  6  2  0
  6  7  1  0
  7  8  1  0
  8  9  1  0
  9 10  1  0
 10 11  1  0
 11 12  2  0
 12 13  1  0
 13 14  2  0
 14 15  1  0
 15 16  2  0
 10 17  2  0
 17 18  1  0
 18 19  1  0
 19 20  2  0
 19 21  2  0
 19 22  1  0
 22 23  2  0
 23 24  1  0
 24 25  2  0
 25 26  1  0
 25 27  1  0
 27 28  2  0
  7 29  2  0
 29 30  1  0
 30 31  1  0
 29  3  1  0
 18  8  1  0
 28 22  1  0
 16 11  1  0
  1 32  1  0
  1 33  1  0
  1 34  1  0
  4 35  1  0
  5 36  1  0
  6 37  1  0
  8 38  1  0
  9 39  1  0
  9 40  1  0
 12 41  1  0
 13 42  1  0
 14 43  1  0
 15 44  1  0
 16 45  1  0
 23 46  1  0
 24 47  1  0
 26 48  1  0
 26 49  1  0
 26 50  1  0
 27 51  1  0
 28 52  1  0
 31 53  1  0
 31 54  1  0
 31 55  1  0
M  END
$$$$
