
     RDKit          3D

 56 58  0  0  0  0  0  0  0  0999 V2000
   -8.6284    1.3863    2.0421 C   0  0  0  0  0  0  0  0  0  0  0  0
   -8.0376    1.2092    0.7631 O   0  0  0  0  0  0  0  0  0  0  0  0
   -6.6777    1.0248    0.7104 C   0  0  0  0  0  0  0  0  0  0  0  0
   -5.8416    0.9851    1.8307 C   0  0  0  0  0  0  0  0  0  0  0  0
   -4.4665    0.7908    1.6810 C   0  0  0  0  0  0  0  0  0  0  0  0
   -3.9057    0.6359    0.4099 C   0  0  0  0  0  0  0  0  0  0  0  0
   -2.4231    0.4011    0.2591 C   0  0  0  0  0  0  0  0  0  0  0  0
   -2.0664   -1.0798    0.4107 C   0  0  0  0  0  0  0  0  0  0  0  0
   -0.6472   -1.3233    0.2312 N   0  0  0  0  0  0  0  0  0  0  0  0
    0.2531   -1.0467    1.2292 C   0  0  0  0  0  0  0  0  0  0  0  0
   -0.0646   -0.6387    2.3404 O   0  0  0  0  0  0  0  0  0  0  0  0
    1.6762   -1.2702    0.8541 C   0  0  0  0  0  0  0  0  0  0  0  0
    2.6143   -0.5289    1.4721 C   0  0  0  0  0  0  0  0  0  0  0  0
    4.0846   -0.6284    1.2052 C   0  0  0  0  0  0  0  0  0  0  0  0
    4.3857   -1.5042    0.0461 N   0  0  0  0  0  0  0  0  0  0  0  0
    4.6294   -0.7347   -1.4517 S   0  0  0  0  0  6  0  0  0  0  0  0
    4.9554   -1.7473   -2.4331 O   0  0  0  0  0  0  0  0  0  0  0  0
    3.5319    0.1844   -1.6661 O   0  0  0  0  0  0  0  0  0  0  0  0
    6.1095    0.2079   -1.1697 C   0  0  0  0  0  0  0  0  0  0  0  0
    6.0753    1.6057   -1.2279 C   0  0  0  0  0  0  0  0  0  0  0  0
    7.2492    2.3263   -1.0046 C   0  0  0  0  0  0  0  0  0  0  0  0
    8.4340    1.6465   -0.7334 C   0  0  0  0  0  0  0  0  0  0  0  0
    9.5573    2.3432   -0.5190 F   0  0  0  0  0  0  0  0  0  0  0  0
    8.4723    0.2555   -0.6827 C   0  0  0  0  0  0  0  0  0  0  0  0
    7.3039   -0.4734   -0.9045 C   0  0  0  0  0  0  0  0  0  0  0  0
    3.5238   -2.7158    0.0076 C   0  0  0  0  0  0  0  0  0  0  0  0
    2.0482   -2.3405   -0.1296 C   0  0  0  0  0  0  0  0  0  0  0  0
   -4.7427    0.6715   -0.7151 C   0  0  0  0  0  0  0  0  0  0  0  0
   -6.1228    0.8680   -0.5756 C   0  0  0  0  0  0  0  0  0  0  0  0
   -7.0093    0.9143   -1.6240 O   0  0  0  0  0  0  0  0  0  0  0  0
   -6.4803    0.8416   -2.9394 C   0  0  0  0  0  0  0  0  0  0  0  0
   -9.7041    1.5257    1.8972 H   0  0  0  0  0  0  0  0  0  0  0  0
   -8.2414    2.2837    2.5361 H   0  0  0  0  0  0  0  0  0  0  0  0
   -8.4905    0.4982    2.6675 H   0  0  0  0  0  0  0  0  0  0  0  0
   -6.2277    1.1008    2.8376 H   0  0  0  0  0  0  0  0  0  0  0  0
   -3.8339    0.7600    2.5669 H   0  0  0  0  0  0  0  0  0  0  0  0
   -1.8833    1.0067    0.9981 H   0  0  0  0  0  0  0  0  0  0  0  0
   -2.0870    0.7684   -0.7192 H   0  0  0  0  0  0  0  0  0  0  0  0
   -2.5906   -1.6837   -0.3384 H   0  0  0  0  0  0  0  0  0  0  0  0
   -2.3607   -1.4480    1.4008 H   0  0  0  0  0  0  0  0  0  0  0  0
   -0.3124   -1.4864   -0.7082 H   0  0  0  0  0  0  0  0  0  0  0  0
    2.3169    0.2149    2.2097 H   0  0  0  0  0  0  0  0  0  0  0  0
    4.5874   -1.0418    2.0870 H   0  0  0  0  0  0  0  0  0  0  0  0
    4.4935    0.3755    1.0591 H   0  0  0  0  0  0  0  0  0  0  0  0
    5.1500    2.1346   -1.4459 H   0  0  0  0  0  0  0  0  0  0  0  0
    7.2509    3.4116   -1.0437 H   0  0  0  0  0  0  0  0  0  0  0  0
    9.4114   -0.2485   -0.4755 H   0  0  0  0  0  0  0  0  0  0  0  0
    7.3252   -1.5608   -0.8744 H   0  0  0  0  0  0  0  0  0  0  0  0
    3.6879   -3.2811    0.9348 H   0  0  0  0  0  0  0  0  0  0  0  0
    3.8304   -3.3838   -0.8041 H   0  0  0  0  0  0  0  0  0  0  0  0
    1.4433   -3.2397    0.0349 H   0  0  0  0  0  0  0  0  0  0  0  0
    1.8443   -1.9887   -1.1474 H   0  0  0  0  0  0  0  0  0  0  0  0
   -4.2937    0.5415   -1.6943 H   0  0  0  0  0  0  0  0  0  0  0  0
   -6.0032   -0.1273   -3.1191 H   0  0  0  0  0  0  0  0  0  0  0  0
   -7.3147    0.9351   -3.6412 H   0  0  0  0  0  0  0  0  0  0  0  0
   -5.7881    1.6672   -3.1351 H   0  0  0  0  0  0  0  0  0  0  0  0
  1  2  1  0
  2  3  1  0
  3  4  2  0
  4  5  1  0
  5  6  2  0
  6  7  1  0
  7  8  1  0
  8  9  1  0
  9 10  1  0
 10 11  2  0
 10 12  1  0
 12 13  2  0
 13 14  1  0
 14 15  1  0
 15 16  1  0
 16 17  2  0
 16 18  2  0
 16 19  1  0
 19 20  2  0
 20 21  1  0
 21 22  2  0
 22 23  1  0
 22 24  1  0
 24 25  2  0
 15 26  1  0
 26 27  1  0
  6 28  1  0
 28 29  2  0
 29 30  1  0
 30 31  1  0
 29  3  1  0
 27 12  1  0
 25 19  1  0
  1 32  1  0
  1 33  1  0
  1 34  1  0
  4 35  1  0
  5 36  1  0
  7 37  1  0
  7 38  1  0
  8 39  1  0
  8 40  1  0
  9 41  1  0
 13 42  1  0
 14 43  1  0
 14 44  1  0
 20 45  1  0
 21 46  1  0
 24 47  1  0
 25 48  1  0
 26 49  1  0
 26 50  1  0
 27 51  1  0
 27 52  1  0
 28 53  1  0
 31 54  1  0
 31 55  1  0
 31 56  1  0
M  END
$$$$
