
     RDKit          3D

 57 60  0  0  0  0  0  0  0  0999 V2000
    6.1818    2.9212    0.9950 C   0  0  0  0  0  0  0  0  0  0  0  0
    4.9297    2.2754    0.8057 O   0  0  0  0  0  0  0  0  0  0  0  0
    4.9463    0.9752    0.3698 C   0  0  0  0  0  0  0  0  0  0  0  0
    6.1038    0.2650    0.0371 C   0  0  0  0  0  0  0  0  0  0  0  0
    6.0222   -1.0653   -0.3797 C   0  0  0  0  0  0  0  0  0  0  0  0
    4.7843   -1.7021   -0.4527 C   0  0  0  0  0  0  0  0  0  0  0  0
    3.6099   -1.0150   -0.1151 C   0  0  0  0  0  0  0  0  0  0  0  0
    2.3294   -1.7785   -0.2033 C   0  0  0  0  0  0  0  0  0  0  0  0
    2.2568   -2.7751   -0.9150 O   0  0  0  0  0  0  0  0  0  0  0  0
    1.2754   -1.3131    0.5469 N   0  0  0  0  0  0  0  0  0  0  0  0
   -0.0724   -1.8223    0.3971 C   0  0  0  0  0  0  0  0  0  0  0  0
   -0.7665   -1.8805    1.7774 C   0  0  0  0  0  0  0  0  0  0  0  0
   -2.3209   -1.9305    1.7029 C   0  0  0  0  0  0  0  0  0  0  0  0
   -2.7904   -3.2221    1.0025 C   0  0  0  0  0  0  0  0  0  0  0  0
   -2.8858   -1.9358    3.1363 C   0  0  0  0  0  0  0  0  0  0  0  0
   -2.8681   -0.6733    0.9539 C   0  0  0  0  0  0  0  0  0  0  0  0
   -2.0639   -0.3763   -0.2684 C   0  0  0  0  0  0  0  0  0  0  0  0
   -0.8138   -0.9122   -0.5246 C   0  0  0  0  0  0  0  0  0  0  0  0
   -0.5072   -0.4906   -1.8224 C   0  0  0  0  0  0  0  0  0  0  0  0
   -1.4459    0.3024   -2.3322 N   0  0  0  0  0  0  0  0  0  0  0  0
   -2.3982    0.4150   -1.3603 N   0  0  0  0  0  0  0  0  0  0  0  0
   -3.5154    1.2763   -1.5939 C   0  0  0  0  0  0  0  0  0  0  0  0
   -4.4116    1.6516   -0.5838 C   0  0  0  0  0  0  0  0  0  0  0  0
   -5.4900    2.5006   -0.8676 C   0  0  0  0  0  0  0  0  0  0  0  0
   -5.6780    2.9886   -2.1576 C   0  0  0  0  0  0  0  0  0  0  0  0
   -4.7825    2.6319   -3.1557 C   0  0  0  0  0  0  0  0  0  0  0  0
   -4.9580    3.1064   -4.3961 F   0  0  0  0  0  0  0  0  0  0  0  0
   -3.7083    1.7900   -2.8888 C   0  0  0  0  0  0  0  0  0  0  0  0
    3.6941    0.3371    0.2622 C   0  0  0  0  0  0  0  0  0  0  0  0
    2.5458    1.0319    0.5789 O   0  0  0  0  0  0  0  0  0  0  0  0
    2.1666    1.8867   -0.5062 C   0  0  0  0  0  0  0  0  0  0  0  0
    6.7910    2.3959    1.7378 H   0  0  0  0  0  0  0  0  0  0  0  0
    6.7168    3.0271    0.0457 H   0  0  0  0  0  0  0  0  0  0  0  0
    5.9840    3.9268    1.3784 H   0  0  0  0  0  0  0  0  0  0  0  0
    7.0890    0.7172    0.0903 H   0  0  0  0  0  0  0  0  0  0  0  0
    6.9265   -1.6107   -0.6406 H   0  0  0  0  0  0  0  0  0  0  0  0
    4.7373   -2.7436   -0.7678 H   0  0  0  0  0  0  0  0  0  0  0  0
    1.3875   -0.4050    0.9874 H   0  0  0  0  0  0  0  0  0  0  0  0
   -0.0436   -2.8273   -0.0399 H   0  0  0  0  0  0  0  0  0  0  0  0
   -0.3788   -2.7434    2.3353 H   0  0  0  0  0  0  0  0  0  0  0  0
   -0.4800   -0.9957    2.3654 H   0  0  0  0  0  0  0  0  0  0  0  0
   -3.8838   -3.2968    1.0106 H   0  0  0  0  0  0  0  0  0  0  0  0
   -2.3947   -4.1089    1.5108 H   0  0  0  0  0  0  0  0  0  0  0  0
   -2.4710   -3.2706   -0.0430 H   0  0  0  0  0  0  0  0  0  0  0  0
   -2.5691   -1.0458    3.6917 H   0  0  0  0  0  0  0  0  0  0  0  0
   -2.5421   -2.8144    3.6935 H   0  0  0  0  0  0  0  0  0  0  0  0
   -3.9812   -1.9512    3.1293 H   0  0  0  0  0  0  0  0  0  0  0  0
   -3.9210   -0.8402    0.6990 H   0  0  0  0  0  0  0  0  0  0  0  0
   -2.8058    0.1954    1.6214 H   0  0  0  0  0  0  0  0  0  0  0  0
    0.3621   -0.7336   -2.4217 H   0  0  0  0  0  0  0  0  0  0  0  0
   -4.2960    1.3392    0.4454 H   0  0  0  0  0  0  0  0  0  0  0  0
   -6.1780    2.7873   -0.0754 H   0  0  0  0  0  0  0  0  0  0  0  0
   -6.5087    3.6470   -2.3904 H   0  0  0  0  0  0  0  0  0  0  0  0
   -3.0387    1.5394   -3.7083 H   0  0  0  0  0  0  0  0  0  0  0  0
    2.8111    2.7691   -0.5590 H   0  0  0  0  0  0  0  0  0  0  0  0
    1.1445    2.2276   -0.3170 H   0  0  0  0  0  0  0  0  0  0  0  0
    2.1730    1.3528   -1.4630 H   0  0  0  0  0  0  0  0  0  0  0  0
  1  2  1  0
  2  3  1  0
  3  4  2  0
  4  5  1  0
  5  6  2  0
  6  7  1  0
  7  8  1  0
  8  9  2  0
  8 10  1  0
 10 11  1  0
 11 12  1  0
 12 13  1  0
 13 14  1  0
 13 15  1  0
 13 16  1  0
 16 17  1  0
 17 18  2  0
 18 19  1  0
 19 20  2  0
 20 21  1  0
 21 22  1  0
 22 23  2  0
 23 24  1  0
 24 25  2  0
 25 26  1  0
 26 27  1  0
 26 28  2  0
  7 29  2  0
 29 30  1  0
 30 31  1  0
 29  3  1  0
 18 11  1  0
 28 22  1  0
 21 17  1  0
  1 32  1  0
  1 33  1  0
  1 34  1  0
  4 35  1  0
  5 36  1  0
  6 37  1  0
 10 38  1  0
 11 39  1  0
 12 40  1  0
 12 41  1  0
 14 42  1  0
 14 43  1  0
 14 44  1  0
 15 45  1  0
 15 46  1  0
 15 47  1  0
 16 48  1  0
 16 49  1  0
 19 50  1  0
 23 51  1  0
 24 52  1  0
 25 53  1  0
 28 54  1  0
 31 55  1  0
 31 56  1  0
 31 57  1  0
M  END
$$$$
