
     RDKit          3D

 57 58  0  0  0  0  0  0  0  0999 V2000
    5.7362   -1.9317    0.3111 C   0  0  0  0  0  0  0  0  0  0  0  0
    6.1109   -0.5529    0.7789 C   0  0  0  0  0  0  0  0  0  0  0  0
    7.0024   -0.4002    1.8516 C   0  0  0  0  0  0  0  0  0  0  0  0
    7.3630    0.8702    2.2970 C   0  0  0  0  0  0  0  0  0  0  0  0
    6.8385    1.9978    1.6728 C   0  0  0  0  0  0  0  0  0  0  0  0
    5.9503    1.8590    0.6033 C   0  0  0  0  0  0  0  0  0  0  0  0
    5.5781    0.5887    0.1522 C   0  0  0  0  0  0  0  0  0  0  0  0
    4.7206    0.3479   -0.8894 O   0  0  0  0  0  0  0  0  0  0  0  0
    4.0250    1.4659   -1.4444 C   0  0  0  0  0  0  0  0  0  0  0  0
    3.0508    0.9458   -2.4903 C   0  0  0  0  0  0  0  0  0  0  0  0
    1.8704    0.2729   -1.8398 C   0  0  0  0  0  0  0  0  0  0  0  0
    1.4254    0.5298   -0.7283 O   0  0  0  0  0  0  0  0  0  0  0  0
    1.3231   -0.6377   -2.6965 O   0  0  0  0  0  0  0  0  0  0  0  0
    0.1566   -1.2874   -2.1792 C   0  0  0  0  0  0  0  0  0  0  0  0
   -1.0276   -0.3274   -2.0242 C   0  0  0  0  0  0  0  0  0  0  0  0
   -1.1152    0.6904   -2.7207 O   0  0  0  0  0  0  0  0  0  0  0  0
   -2.0354   -0.6139   -0.9486 C   0  0  0  0  0  0  0  0  0  0  0  0
   -2.7150    0.3896   -0.3474 C   0  0  0  0  0  0  0  0  0  0  0  0
   -2.5731    1.7161   -0.7406 N   0  0  0  0  0  0  0  0  0  0  0  0
   -3.5914    0.0897    0.6975 N   0  0  0  0  0  0  0  0  0  0  0  0
   -4.4696    1.1357    1.2584 C   0  0  0  0  0  0  0  0  0  0  0  0
   -5.8624    1.2753    0.5955 C   0  0  0  0  0  0  0  0  0  0  0  0
   -6.7255    0.0210    0.7279 C   0  0  0  0  0  0  0  0  0  0  0  0
   -5.7983    1.7121   -0.8666 C   0  0  0  0  0  0  0  0  0  0  0  0
   -3.6983   -1.1825    1.2634 C   0  0  0  0  0  0  0  0  0  0  0  0
   -4.4363   -1.4233    2.2210 O   0  0  0  0  0  0  0  0  0  0  0  0
   -2.9395   -2.1778    0.6752 N   0  0  0  0  0  0  0  0  0  0  0  0
   -3.0914   -3.5285    1.1854 C   0  0  0  0  0  0  0  0  0  0  0  0
   -2.2631   -2.0040   -0.5071 C   0  0  0  0  0  0  0  0  0  0  0  0
   -1.8523   -2.9385   -1.1945 O   0  0  0  0  0  0  0  0  0  0  0  0
    4.6533   -2.0772    0.3857 H   0  0  0  0  0  0  0  0  0  0  0  0
    6.2164   -2.7069    0.9177 H   0  0  0  0  0  0  0  0  0  0  0  0
    6.0528   -2.0781   -0.7263 H   0  0  0  0  0  0  0  0  0  0  0  0
    7.4213   -1.2735    2.3458 H   0  0  0  0  0  0  0  0  0  0  0  0
    8.0537    0.9792    3.1290 H   0  0  0  0  0  0  0  0  0  0  0  0
    7.1219    2.9898    2.0161 H   0  0  0  0  0  0  0  0  0  0  0  0
    5.5716    2.7645    0.1419 H   0  0  0  0  0  0  0  0  0  0  0  0
    3.4959    2.0228   -0.6619 H   0  0  0  0  0  0  0  0  0  0  0  0
    4.7469    2.1250   -1.9406 H   0  0  0  0  0  0  0  0  0  0  0  0
    3.5575    0.2217   -3.1383 H   0  0  0  0  0  0  0  0  0  0  0  0
    2.6666    1.7706   -3.0986 H   0  0  0  0  0  0  0  0  0  0  0  0
    0.4133   -1.7678   -1.2289 H   0  0  0  0  0  0  0  0  0  0  0  0
   -0.1249   -2.0603   -2.9011 H   0  0  0  0  0  0  0  0  0  0  0  0
   -1.9322    1.8228   -1.5380 H   0  0  0  0  0  0  0  0  0  0  0  0
   -2.2435    2.2966    0.0257 H   0  0  0  0  0  0  0  0  0  0  0  0
   -3.9574    2.1044    1.2464 H   0  0  0  0  0  0  0  0  0  0  0  0
   -4.6213    0.9243    2.3251 H   0  0  0  0  0  0  0  0  0  0  0  0
   -6.3816    2.0745    1.1420 H   0  0  0  0  0  0  0  0  0  0  0  0
   -7.7372    0.2094    0.3511 H   0  0  0  0  0  0  0  0  0  0  0  0
   -6.8192   -0.2799    1.7761 H   0  0  0  0  0  0  0  0  0  0  0  0
   -6.3136   -0.8182    0.1575 H   0  0  0  0  0  0  0  0  0  0  0  0
   -5.2238    2.6369   -0.9742 H   0  0  0  0  0  0  0  0  0  0  0  0
   -6.8052    1.9073   -1.2526 H   0  0  0  0  0  0  0  0  0  0  0  0
   -5.3480    0.9425   -1.5013 H   0  0  0  0  0  0  0  0  0  0  0  0
   -3.1713   -3.5210    2.2766 H   0  0  0  0  0  0  0  0  0  0  0  0
   -2.2411   -4.1555    0.8995 H   0  0  0  0  0  0  0  0  0  0  0  0
   -4.0076   -3.9560    0.7658 H   0  0  0  0  0  0  0  0  0  0  0  0
  1  2  1  0
  2  3  2  0
  3  4  1  0
  4  5  2  0
  5  6  1  0
  6  7  2  0
  7  8  1  0
  8  9  1  0
  9 10  1  0
 10 11  1  0
 11 12  2  0
 11 13  1  0
 13 14  1  0
 14 15  1  0
 15 16  2  0
 15 17  1  0
 17 18  2  0
 18 19  1  0
 18 20  1  0
 20 21  1  0
 21 22  1  0
 22 23  1  0
 22 24  1  0
 20 25  1  0
 25 26  2  0
 25 27  1  0
 27 28  1  0
 27 29  1  0
 29 30  2  0
  7  2  1  0
 29 17  1  0
  1 31  1  0
  1 32  1  0
  1 33  1  0
  3 34  1  0
  4 35  1  0
  5 36  1  0
  6 37  1  0
  9 38  1  0
  9 39  1  0
 10 40  1  0
 10 41  1  0
 14 42  1  0
 14 43  1  0
 19 44  1  0
 19 45  1  0
 21 46  1  0
 21 47  1  0
 22 48  1  0
 23 49  1  0
 23 50  1  0
 23 51  1  0
 24 52  1  0
 24 53  1  0
 24 54  1  0
 28 55  1  0
 28 56  1  0
 28 57  1  0
M  END
$$$$
