
     RDKit          3D

 48 50  0  0  0  0  0  0  0  0999 V2000
    5.3806   -0.6383    2.8551 C   0  0  0  0  0  0  0  0  0  0  0  0
    4.4986   -0.2183    1.7075 C   0  0  0  0  0  0  0  0  0  0  0  0
    5.0979    0.2041    0.5145 C   0  0  0  0  0  0  0  0  0  0  0  0
    4.3352    0.6033   -0.5837 C   0  0  0  0  0  0  0  0  0  0  0  0
    2.9408    0.5734   -0.4619 C   0  0  0  0  0  0  0  0  0  0  0  0
    1.7513    0.9906   -1.6306 S   0  0  0  0  0  0  0  0  0  0  0  0
    0.5079    0.6548   -0.5051 C   0  0  0  0  0  0  0  0  0  0  0  0
   -0.8407    0.7350   -0.8576 N   0  0  0  0  0  0  0  0  0  0  0  0
   -1.8045   -0.1265   -0.1647 C   0  0  0  0  0  0  0  0  0  0  0  0
   -1.7646   -1.5717   -0.6696 C   0  0  0  0  0  0  0  0  0  0  0  0
   -2.6900   -2.4988    0.1278 C   0  0  0  0  0  0  0  0  0  0  0  0
   -4.0954   -2.0647    0.1805 N   0  0  0  0  0  0  0  0  0  0  0  0
   -4.8486   -2.9141    1.1074 C   0  0  0  0  0  0  0  0  0  0  0  0
   -4.7293   -2.0949   -1.1411 C   0  0  0  0  0  0  0  0  0  0  0  0
   -1.2932    1.4030   -2.0046 C   0  0  0  0  0  0  0  0  0  0  0  0
   -2.1819    0.9104   -2.7039 O   0  0  0  0  0  0  0  0  0  0  0  0
   -0.7962    2.7595   -2.2411 C   0  0  0  0  0  0  0  0  0  0  0  0
   -0.3727    3.7178   -1.3324 C   0  0  0  0  0  0  0  0  0  0  0  0
    0.0290    4.9319   -1.9669 C   0  0  0  0  0  0  0  0  0  0  0  0
   -0.1267    4.8532   -3.3266 C   0  0  0  0  0  0  0  0  0  0  0  0
    0.3025    6.2827   -4.5201 Br  0  0  0  0  0  0  0  0  0  0  0  0
   -0.7474    3.3676   -3.8476 S   0  0  0  0  0  0  0  0  0  0  0  0
    0.9183    0.1914    0.6527 N   0  0  0  0  0  0  0  0  0  0  0  0
    2.3057    0.1613    0.7083 C   0  0  0  0  0  0  0  0  0  0  0  0
    3.0841   -0.2484    1.8240 C   0  0  0  0  0  0  0  0  0  0  0  0
    2.4331   -0.7039    3.1038 C   0  0  0  0  0  0  0  0  0  0  0  0
    5.1905   -1.6836    3.1182 H   0  0  0  0  0  0  0  0  0  0  0  0
    5.2001   -0.0010    3.7266 H   0  0  0  0  0  0  0  0  0  0  0  0
    6.4422   -0.5516    2.5999 H   0  0  0  0  0  0  0  0  0  0  0  0
    6.1834    0.2253    0.4258 H   0  0  0  0  0  0  0  0  0  0  0  0
    4.8122    0.9254   -1.5044 H   0  0  0  0  0  0  0  0  0  0  0  0
   -1.6024   -0.0851    0.9125 H   0  0  0  0  0  0  0  0  0  0  0  0
   -2.8056    0.2973   -0.3101 H   0  0  0  0  0  0  0  0  0  0  0  0
   -2.0091   -1.6089   -1.7372 H   0  0  0  0  0  0  0  0  0  0  0  0
   -0.7422   -1.9618   -0.5874 H   0  0  0  0  0  0  0  0  0  0  0  0
   -2.2950   -2.5459    1.1514 H   0  0  0  0  0  0  0  0  0  0  0  0
   -2.6149   -3.5146   -0.2822 H   0  0  0  0  0  0  0  0  0  0  0  0
   -4.8577   -3.9638    0.7921 H   0  0  0  0  0  0  0  0  0  0  0  0
   -4.4211   -2.8591    2.1149 H   0  0  0  0  0  0  0  0  0  0  0  0
   -5.8854   -2.5690    1.1908 H   0  0  0  0  0  0  0  0  0  0  0  0
   -4.6867   -3.0908   -1.5963 H   0  0  0  0  0  0  0  0  0  0  0  0
   -5.7815   -1.7962   -1.0684 H   0  0  0  0  0  0  0  0  0  0  0  0
   -4.2604   -1.3790   -1.8234 H   0  0  0  0  0  0  0  0  0  0  0  0
   -0.3516    3.5599   -0.2598 H   0  0  0  0  0  0  0  0  0  0  0  0
    0.4008    5.8052   -1.4452 H   0  0  0  0  0  0  0  0  0  0  0  0
    1.3412   -0.6739    3.0356 H   0  0  0  0  0  0  0  0  0  0  0  0
    2.7295   -0.0537    3.9329 H   0  0  0  0  0  0  0  0  0  0  0  0
    2.7203   -1.7356    3.3298 H   0  0  0  0  0  0  0  0  0  0  0  0
  1  2  1  0
  2  3  2  0
  3  4  1  0
  4  5  2  0
  5  6  1  0
  6  7  1  0
  7  8  1  0
  8  9  1  0
  9 10  1  0
 10 11  1  0
 11 12  1  0
 12 13  1  0
 12 14  1  0
  8 15  1  0
 15 16  2  0
 15 17  1  0
 17 18  2  0
 18 19  1  0
 19 20  2  0
 20 21  1  0
 20 22  1  0
  7 23  2  0
 23 24  1  0
 24 25  2  0
 25 26  1  0
 25  2  1  0
 24  5  1  0
 22 17  1  0
  1 27  1  0
  1 28  1  0
  1 29  1  0
  3 30  1  0
  4 31  1  0
  9 32  1  0
  9 33  1  0
 10 34  1  0
 10 35  1  0
 11 36  1  0
 11 37  1  0
 13 38  1  0
 13 39  1  0
 13 40  1  0
 14 41  1  0
 14 42  1  0
 14 43  1  0
 18 44  1  0
 19 45  1  0
 26 46  1  0
 26 47  1  0
 26 48  1  0
M  END
$$$$
