
     RDKit          3D

 44 46  0  0  0  0  0  0  0  0999 V2000
    4.4737    2.0329   -1.3314 C   0  0  0  0  0  0  0  0  0  0  0  0
    3.8990    0.9229   -0.6477 O   0  0  0  0  0  0  0  0  0  0  0  0
    4.7490   -0.0225   -0.1264 C   0  0  0  0  0  0  0  0  0  0  0  0
    6.1473    0.0735   -0.2172 C   0  0  0  0  0  0  0  0  0  0  0  0
    6.9734   -0.9122    0.3285 C   0  0  0  0  0  0  0  0  0  0  0  0
    6.4165   -2.0082    0.9733 C   0  0  0  0  0  0  0  0  0  0  0  0
    5.0305   -2.1181    1.0728 C   0  0  0  0  0  0  0  0  0  0  0  0
    4.1775   -1.1359    0.5301 C   0  0  0  0  0  0  0  0  0  0  0  0
    2.6977   -1.3765    0.7073 C   0  0  0  0  0  0  0  0  0  0  0  0
    2.3384   -2.3942    1.2931 O   0  0  0  0  0  0  0  0  0  0  0  0
    1.8475   -0.4185    0.1914 N   0  0  0  0  0  0  0  0  0  0  0  0
    0.4399   -0.3954    0.2154 C   0  0  0  0  0  0  0  0  0  0  0  0
   -0.1897    0.7043   -0.3791 C   0  0  0  0  0  0  0  0  0  0  0  0
   -1.5869    0.8122   -0.4011 C   0  0  0  0  0  0  0  0  0  0  0  0
   -2.3810   -0.1835    0.1748 C   0  0  0  0  0  0  0  0  0  0  0  0
   -3.8818   -0.1195    0.1839 C   0  0  0  0  0  0  0  0  0  0  0  0
   -4.5539   -1.1916    0.4917 N   0  0  0  0  0  0  0  0  0  0  0  0
   -5.9121   -1.1191    0.5342 N   0  0  0  0  0  0  0  0  0  0  0  0
   -6.6552    0.0315    0.5949 C   0  0  0  0  0  0  0  0  0  0  0  0
   -7.8801    0.0150    0.6828 O   0  0  0  0  0  0  0  0  0  0  0  0
   -5.8601    1.3064    0.6221 C   0  0  0  0  0  0  0  0  0  0  0  0
   -4.5841    1.1780   -0.1982 C   0  0  0  0  0  0  0  0  0  0  0  0
   -4.8742    1.1934   -1.7004 C   0  0  0  0  0  0  0  0  0  0  0  0
   -1.7493   -1.2860    0.7643 C   0  0  0  0  0  0  0  0  0  0  0  0
   -0.3519   -1.3897    0.7857 C   0  0  0  0  0  0  0  0  0  0  0  0
    3.6532    2.6651   -1.6844 H   0  0  0  0  0  0  0  0  0  0  0  0
    5.0900    2.6353   -0.6563 H   0  0  0  0  0  0  0  0  0  0  0  0
    5.0414    1.7056   -2.2085 H   0  0  0  0  0  0  0  0  0  0  0  0
    6.6359    0.9088   -0.7091 H   0  0  0  0  0  0  0  0  0  0  0  0
    8.0542   -0.8216    0.2486 H   0  0  0  0  0  0  0  0  0  0  0  0
    7.0548   -2.7782    1.3996 H   0  0  0  0  0  0  0  0  0  0  0  0
    4.6125   -2.9855    1.5828 H   0  0  0  0  0  0  0  0  0  0  0  0
    2.3022    0.3673   -0.2620 H   0  0  0  0  0  0  0  0  0  0  0  0
    0.3999    1.4947   -0.8378 H   0  0  0  0  0  0  0  0  0  0  0  0
   -2.0184    1.6807   -0.8872 H   0  0  0  0  0  0  0  0  0  0  0  0
   -6.4107   -1.9987    0.6267 H   0  0  0  0  0  0  0  0  0  0  0  0
   -6.4821    2.1261    0.2465 H   0  0  0  0  0  0  0  0  0  0  0  0
   -5.6191    1.5156    1.6714 H   0  0  0  0  0  0  0  0  0  0  0  0
   -3.9529    2.0375    0.0497 H   0  0  0  0  0  0  0  0  0  0  0  0
   -3.9500    1.1217   -2.2827 H   0  0  0  0  0  0  0  0  0  0  0  0
   -5.5090    0.3535   -2.0029 H   0  0  0  0  0  0  0  0  0  0  0  0
   -5.3797    2.1212   -1.9877 H   0  0  0  0  0  0  0  0  0  0  0  0
   -2.3348   -2.0824    1.2203 H   0  0  0  0  0  0  0  0  0  0  0  0
    0.0826   -2.2658    1.2573 H   0  0  0  0  0  0  0  0  0  0  0  0
  1  2  1  0
  2  3  1  0
  3  4  2  0
  4  5  1  0
  5  6  2  0
  6  7  1  0
  7  8  2  0
  8  9  1  0
  9 10  2  0
  9 11  1  0
 11 12  1  0
 12 13  2  0
 13 14  1  0
 14 15  2  0
 15 16  1  0
 16 17  2  0
 17 18  1  0
 18 19  1  0
 19 20  2  0
 19 21  1  0
 21 22  1  0
 22 23  1  0
 15 24  1  0
 24 25  2  0
  8  3  1  0
 25 12  1  0
 22 16  1  0
  1 26  1  0
  1 27  1  0
  1 28  1  0
  4 29  1  0
  5 30  1  0
  6 31  1  0
  7 32  1  0
 11 33  1  0
 13 34  1  0
 14 35  1  0
 18 36  1  0
 21 37  1  0
 21 38  1  0
 22 39  1  0
 23 40  1  0
 23 41  1  0
 23 42  1  0
 24 43  1  0
 25 44  1  0
M  END
$$$$
