
     RDKit          3D

 74 78  0  0  0  0  0  0  0  0999 V2000
    0.9025   -2.1443    4.6362 C   0  0  0  0  0  0  0  0  0  0  0  0
    0.3910   -2.9016    3.4184 C   0  0  0  0  0  0  0  0  0  0  0  0
   -0.8708   -2.3016    2.8578 C   0  0  0  0  0  0  0  0  0  0  0  0
   -2.2256   -2.7341    3.3767 C   0  0  0  0  0  0  0  0  0  0  0  0
   -2.2828   -3.7918    4.4585 C   0  0  0  0  0  0  0  0  0  0  0  0
   -3.3715   -2.2795    2.9568 N   0  0  0  0  0  0  0  0  0  0  0  0
   -3.3368   -1.3509    1.9628 C   0  0  0  0  0  0  0  0  0  0  0  0
   -4.3450   -0.6742    1.3199 C   0  0  0  0  0  0  0  0  0  0  0  0
   -3.7165    0.1571    0.3623 C   0  0  0  0  0  0  0  0  0  0  0  0
   -4.3379    1.0934   -0.5863 C   0  0  0  0  0  0  0  0  0  0  0  0
   -3.5300    1.9372   -1.3709 C   0  0  0  0  0  0  0  0  0  0  0  0
   -4.0977    2.8350   -2.2744 C   0  0  0  0  0  0  0  0  0  0  0  0
   -3.4147    3.7007   -3.0845 O   0  0  0  0  0  0  0  0  0  0  0  0
   -1.9944    3.6656   -3.0092 C   0  0  0  0  0  0  0  0  0  0  0  0
   -5.4865    2.8920   -2.3937 C   0  0  0  0  0  0  0  0  0  0  0  0
   -6.3104    2.0655   -1.6272 C   0  0  0  0  0  0  0  0  0  0  0  0
   -7.6503    2.2315   -1.8513 O   0  0  0  0  0  0  0  0  0  0  0  0
   -8.5409    1.4368   -1.0791 C   0  0  0  0  0  0  0  0  0  0  0  0
   -5.7338    1.1670   -0.7269 C   0  0  0  0  0  0  0  0  0  0  0  0
   -2.3858   -0.0010    0.4041 N   0  0  0  0  0  0  0  0  0  0  0  0
   -2.1476   -0.9078    1.3940 N   0  0  0  0  0  0  0  0  0  0  0  0
   -0.8921   -1.3954    1.8515 C   0  0  0  0  0  0  0  0  0  0  0  0
    0.2920   -0.9106    1.2480 N   0  0  0  0  0  0  0  0  0  0  0  0
    0.7136    0.4791    1.5643 C   0  0  0  0  0  0  0  0  0  0  0  0
    2.0689    0.7948    0.8958 C   0  0  0  0  0  0  0  0  0  0  0  0
    2.0400    0.7534   -0.5871 N   0  0  0  0  0  0  0  0  0  0  0  0
    3.3288    0.3030   -1.1471 C   0  0  0  0  0  0  0  0  0  0  0  0
    4.5023    1.2755   -0.8513 C   0  0  0  0  0  0  0  0  0  0  0  0
    5.8274    0.9000   -1.3638 N   0  0  0  0  0  0  0  0  0  0  0  0
    5.9445    0.9848   -2.8286 C   0  0  0  0  0  0  0  0  0  0  0  0
    7.2089    0.2648   -3.3224 C   0  0  0  0  0  0  0  0  0  0  0  0
    7.1919   -1.1445   -3.0481 O   0  0  0  0  0  0  0  0  0  0  0  0
    6.4128   -1.4885   -1.8950 C   0  0  0  0  0  0  0  0  0  0  0  0
    6.3542   -0.3712   -0.8401 C   0  0  0  0  0  0  0  0  0  0  0  0
    0.9150   -0.0863   -1.0623 C   0  0  0  0  0  0  0  0  0  0  0  0
    0.5689   -1.2947   -0.1645 C   0  0  0  0  0  0  0  0  0  0  0  0
    1.1542   -1.1097    4.3824 H   0  0  0  0  0  0  0  0  0  0  0  0
    0.1630   -2.1222    5.4426 H   0  0  0  0  0  0  0  0  0  0  0  0
    1.8082   -2.6226    5.0228 H   0  0  0  0  0  0  0  0  0  0  0  0
    0.2385   -3.9546    3.6757 H   0  0  0  0  0  0  0  0  0  0  0  0
    1.1814   -2.9134    2.6578 H   0  0  0  0  0  0  0  0  0  0  0  0
   -3.3196   -3.9657    4.7650 H   0  0  0  0  0  0  0  0  0  0  0  0
   -1.7183   -3.4710    5.3365 H   0  0  0  0  0  0  0  0  0  0  0  0
   -1.8790   -4.7341    4.0776 H   0  0  0  0  0  0  0  0  0  0  0  0
   -5.3970   -0.7818    1.5351 H   0  0  0  0  0  0  0  0  0  0  0  0
   -2.4520    1.8759   -1.2544 H   0  0  0  0  0  0  0  0  0  0  0  0
   -1.6071    2.6855   -3.3073 H   0  0  0  0  0  0  0  0  0  0  0  0
   -1.6047    4.4053   -3.7151 H   0  0  0  0  0  0  0  0  0  0  0  0
   -1.6444    3.9430   -2.0091 H   0  0  0  0  0  0  0  0  0  0  0  0
   -5.9343    3.5923   -3.0951 H   0  0  0  0  0  0  0  0  0  0  0  0
   -8.4040    0.3716   -1.2926 H   0  0  0  0  0  0  0  0  0  0  0  0
   -9.5622    1.7049   -1.3662 H   0  0  0  0  0  0  0  0  0  0  0  0
   -8.4304    1.6447   -0.0096 H   0  0  0  0  0  0  0  0  0  0  0  0
   -6.3619    0.5152   -0.1316 H   0  0  0  0  0  0  0  0  0  0  0  0
   -0.0441    1.2030    1.2405 H   0  0  0  0  0  0  0  0  0  0  0  0
    0.8222    0.5843    2.6498 H   0  0  0  0  0  0  0  0  0  0  0  0
    2.8007    0.0747    1.2874 H   0  0  0  0  0  0  0  0  0  0  0  0
    2.3945    1.7934    1.2089 H   0  0  0  0  0  0  0  0  0  0  0  0
    3.2202    0.2305   -2.2349 H   0  0  0  0  0  0  0  0  0  0  0  0
    3.5643   -0.7039   -0.7827 H   0  0  0  0  0  0  0  0  0  0  0  0
    4.2451    2.2701   -1.2398 H   0  0  0  0  0  0  0  0  0  0  0  0
    4.6043    1.4089    0.2330 H   0  0  0  0  0  0  0  0  0  0  0  0
    5.0815    0.5246   -3.3216 H   0  0  0  0  0  0  0  0  0  0  0  0
    5.9829    2.0380   -3.1275 H   0  0  0  0  0  0  0  0  0  0  0  0
    7.3124    0.3848   -4.4061 H   0  0  0  0  0  0  0  0  0  0  0  0
    8.1076    0.6921   -2.8613 H   0  0  0  0  0  0  0  0  0  0  0  0
    5.4052   -1.7538   -2.2348 H   0  0  0  0  0  0  0  0  0  0  0  0
    6.8547   -2.3910   -1.4604 H   0  0  0  0  0  0  0  0  0  0  0  0
    5.8016   -0.7125    0.0431 H   0  0  0  0  0  0  0  0  0  0  0  0
    7.3784   -0.1715   -0.5003 H   0  0  0  0  0  0  0  0  0  0  0  0
    0.0327    0.5636   -1.1260 H   0  0  0  0  0  0  0  0  0  0  0  0
    1.0885   -0.4304   -2.0893 H   0  0  0  0  0  0  0  0  0  0  0  0
    1.4097   -1.9984   -0.1585 H   0  0  0  0  0  0  0  0  0  0  0  0
   -0.2843   -1.8288   -0.6000 H   0  0  0  0  0  0  0  0  0  0  0  0
  1  2  1  0
  2  3  1  0
  3  4  1  0
  4  5  1  0
  4  6  2  0
  6  7  1  0
  7  8  2  0
  8  9  1  0
  9 10  1  0
 10 11  2  0
 11 12  1  0
 12 13  1  0
 13 14  1  0
 12 15  2  0
 15 16  1  0
 16 17  1  0
 17 18  1  0
 16 19  2  0
  9 20  2  0
 20 21  1  0
 21 22  1  0
 22 23  1  0
 23 24  1  0
 24 25  1  0
 25 26  1  0
 26 27  1  0
 27 28  1  0
 28 29  1  0
 29 30  1  0
 30 31  1  0
 31 32  1  0
 32 33  1  0
 33 34  1  0
 26 35  1  0
 35 36  1  0
 22  3  2  0
 36 23  1  0
 21  7  1  0
 34 29  1  0
 19 10  1  0
  1 37  1  0
  1 38  1  0
  1 39  1  0
  2 40  1  0
  2 41  1  0
  5 42  1  0
  5 43  1  0
  5 44  1  0
  8 45  1  0
 11 46  1  0
 14 47  1  0
 14 48  1  0
 14 49  1  0
 15 50  1  0
 18 51  1  0
 18 52  1  0
 18 53  1  0
 19 54  1  0
 24 55  1  0
 24 56  1  0
 25 57  1  0
 25 58  1  0
 27 59  1  0
 27 60  1  0
 28 61  1  0
 28 62  1  0
 30 63  1  0
 30 64  1  0
 31 65  1  0
 31 66  1  0
 33 67  1  0
 33 68  1  0
 34 69  1  0
 34 70  1  0
 35 71  1  0
 35 72  1  0
 36 73  1  0
 36 74  1  0
M  END
$$$$
