
     RDKit          3D

 52 55  0  0  0  0  0  0  0  0999 V2000
    5.9339    0.3511    4.0348 C   0  0  0  0  0  0  0  0  0  0  0  0
    4.7692    0.0820    3.1253 C   0  0  0  0  0  0  0  0  0  0  0  0
    3.5924   -0.4812    3.6403 C   0  0  0  0  0  0  0  0  0  0  0  0
    2.4785   -0.7169    2.8270 C   0  0  0  0  0  0  0  0  0  0  0  0
    2.5978   -0.3539    1.4888 C   0  0  0  0  0  0  0  0  0  0  0  0
    1.6325   -0.5010    0.5484 O   0  0  0  0  0  0  0  0  0  0  0  0
    2.1160   -0.0269   -0.6393 C   0  0  0  0  0  0  0  0  0  0  0  0
    1.2991   -0.0362   -1.8542 C   0  0  0  0  0  0  0  0  0  0  0  0
    1.7259    0.4901   -2.8864 O   0  0  0  0  0  0  0  0  0  0  0  0
    0.0222   -0.6366   -1.8683 N   0  0  0  0  0  0  0  0  0  0  0  0
   -0.5282   -1.4312   -0.7680 C   0  0  0  0  0  0  0  0  0  0  0  0
   -1.9045   -2.0149   -1.0750 C   0  0  0  0  0  0  0  0  0  0  0  0
   -2.8138   -0.9711   -1.7395 C   0  0  0  0  0  0  0  0  0  0  0  0
   -4.0201   -1.6531   -2.1309 O   0  0  0  0  0  0  0  0  0  0  0  0
   -3.2091    0.1138   -0.7278 C   0  0  0  0  0  0  0  0  0  0  0  0
   -2.5500    1.3505   -0.6461 C   0  0  0  0  0  0  0  0  0  0  0  0
   -2.9148    2.3029    0.3086 C   0  0  0  0  0  0  0  0  0  0  0  0
   -3.9419    2.0367    1.2108 C   0  0  0  0  0  0  0  0  0  0  0  0
   -4.6134    0.8100    1.1715 C   0  0  0  0  0  0  0  0  0  0  0  0
   -5.7125    0.4882    2.1538 C   0  0  0  0  0  0  0  0  0  0  0  0
   -5.3627   -0.5038    3.0189 F   0  0  0  0  0  0  0  0  0  0  0  0
   -6.8531    0.0649    1.5411 F   0  0  0  0  0  0  0  0  0  0  0  0
   -6.0791    1.5470    2.9294 F   0  0  0  0  0  0  0  0  0  0  0  0
   -4.2338   -0.1407    0.2073 C   0  0  0  0  0  0  0  0  0  0  0  0
   -2.1721   -0.4623   -3.0496 C   0  0  0  0  0  0  0  0  0  0  0  0
   -0.6710   -0.7402   -3.1478 C   0  0  0  0  0  0  0  0  0  0  0  0
    3.4195    0.4346   -0.4473 C   0  0  0  0  0  0  0  0  0  0  0  0
    4.3073    1.0346   -1.4778 C   0  0  0  0  0  0  0  0  0  0  0  0
    3.7293    0.2177    0.9310 C   0  0  0  0  0  0  0  0  0  0  0  0
    4.8397    0.4477    1.7670 C   0  0  0  0  0  0  0  0  0  0  0  0
    5.9976   -0.4088    4.8209 H   0  0  0  0  0  0  0  0  0  0  0  0
    6.8780    0.3240    3.4806 H   0  0  0  0  0  0  0  0  0  0  0  0
    5.8250    1.3357    4.4998 H   0  0  0  0  0  0  0  0  0  0  0  0
    3.5335   -0.7452    4.6951 H   0  0  0  0  0  0  0  0  0  0  0  0
    1.5669   -1.1543    3.2143 H   0  0  0  0  0  0  0  0  0  0  0  0
   -0.6053   -0.7871    0.1132 H   0  0  0  0  0  0  0  0  0  0  0  0
    0.1706   -2.2444   -0.5426 H   0  0  0  0  0  0  0  0  0  0  0  0
   -2.3533   -2.4202   -0.1592 H   0  0  0  0  0  0  0  0  0  0  0  0
   -1.7972   -2.8796   -1.7448 H   0  0  0  0  0  0  0  0  0  0  0  0
   -4.6534   -0.9690   -2.4138 H   0  0  0  0  0  0  0  0  0  0  0  0
   -1.7220    1.5930   -1.3095 H   0  0  0  0  0  0  0  0  0  0  0  0
   -2.3850    3.2518    0.3532 H   0  0  0  0  0  0  0  0  0  0  0  0
   -4.2080    2.7889    1.9516 H   0  0  0  0  0  0  0  0  0  0  0  0
   -4.7455   -1.1049    0.1931 H   0  0  0  0  0  0  0  0  0  0  0  0
   -2.6474   -0.9369   -3.9190 H   0  0  0  0  0  0  0  0  0  0  0  0
   -2.3567    0.6083   -3.1935 H   0  0  0  0  0  0  0  0  0  0  0  0
   -0.5017   -1.7605   -3.5149 H   0  0  0  0  0  0  0  0  0  0  0  0
   -0.2403   -0.0709   -3.8994 H   0  0  0  0  0  0  0  0  0  0  0  0
    5.2931    1.2769   -1.0690 H   0  0  0  0  0  0  0  0  0  0  0  0
    3.8720    1.9608   -1.8663 H   0  0  0  0  0  0  0  0  0  0  0  0
    4.4552    0.3392   -2.3105 H   0  0  0  0  0  0  0  0  0  0  0  0
    5.7410    0.9015    1.3650 H   0  0  0  0  0  0  0  0  0  0  0  0
  1  2  1  0
  2  3  2  0
  3  4  1  0
  4  5  2  0
  5  6  1  0
  6  7  1  0
  7  8  1  0
  8  9  2  0
  8 10  1  0
 10 11  1  0
 11 12  1  0
 12 13  1  0
 13 14  1  0
 13 15  1  0
 15 16  2  0
 16 17  1  0
 17 18  2  0
 18 19  1  0
 19 20  1  0
 20 21  1  0
 20 22  1  0
 20 23  1  0
 19 24  2  0
 13 25  1  0
 25 26  1  0
  7 27  2  0
 27 28  1  0
 27 29  1  0
 29 30  2  0
 30  2  1  0
 29  5  1  0
 26 10  1  0
 24 15  1  0
  1 31  1  0
  1 32  1  0
  1 33  1  0
  3 34  1  0
  4 35  1  0
 11 36  1  0
 11 37  1  0
 12 38  1  0
 12 39  1  0
 14 40  1  0
 16 41  1  0
 17 42  1  0
 18 43  1  0
 24 44  1  0
 25 45  1  0
 25 46  1  0
 26 47  1  0
 26 48  1  0
 28 49  1  0
 28 50  1  0
 28 51  1  0
 30 52  1  0
M  END
$$$$
