
     RDKit          3D

 37 40  0  0  0  0  0  0  0  0999 V2000
   -2.8672    3.7283   -1.0906 C   0  0  0  0  0  0  0  0  0  0  0  0
   -2.0797    2.5891   -1.4127 O   0  0  0  0  0  0  0  0  0  0  0  0
   -2.2443    1.4809   -0.6311 C   0  0  0  0  0  0  0  0  0  0  0  0
   -3.1197    1.3551    0.4375 C   0  0  0  0  0  0  0  0  0  0  0  0
   -3.1810    0.1499    1.1450 C   0  0  0  0  0  0  0  0  0  0  0  0
   -2.3895   -0.9418    0.8186 C   0  0  0  0  0  0  0  0  0  0  0  0
   -2.5265   -2.0570    1.5536 N   0  0  0  0  0  0  0  0  0  0  0  0
   -1.7783   -3.1389    1.2515 C   0  0  0  0  0  0  0  0  0  0  0  0
   -1.9721   -4.3654    2.0914 C   0  0  0  0  0  0  0  0  0  0  0  0
   -0.8624   -3.1409    0.2148 C   0  0  0  0  0  0  0  0  0  0  0  0
   -0.7010   -1.9782   -0.5430 C   0  0  0  0  0  0  0  0  0  0  0  0
    0.5110   -2.0520   -1.8686 S   0  0  0  0  0  0  0  0  0  0  0  0
    1.7589   -1.0760   -1.1124 C   0  0  0  0  0  0  0  0  0  0  0  0
    2.0516    0.1117   -1.5873 N   0  0  0  0  0  0  0  0  0  0  0  0
    3.0553    0.6827   -0.8244 C   0  0  0  0  0  0  0  0  0  0  0  0
    3.6162    1.9608   -1.0210 C   0  0  0  0  0  0  0  0  0  0  0  0
    4.6308    2.4138   -0.1715 C   0  0  0  0  0  0  0  0  0  0  0  0
    5.0914    1.6106    0.8670 C   0  0  0  0  0  0  0  0  0  0  0  0
    4.5524    0.3385    1.0834 C   0  0  0  0  0  0  0  0  0  0  0  0
    3.5333   -0.1060    0.2247 C   0  0  0  0  0  0  0  0  0  0  0  0
    2.6808   -1.6021    0.2311 S   0  0  0  0  0  0  0  0  0  0  0  0
   -1.4889   -0.8338   -0.2592 C   0  0  0  0  0  0  0  0  0  0  0  0
   -1.4385    0.3926   -0.9736 C   0  0  0  0  0  0  0  0  0  0  0  0
   -2.6397    4.0939   -0.0838 H   0  0  0  0  0  0  0  0  0  0  0  0
   -2.6119    4.5224   -1.7988 H   0  0  0  0  0  0  0  0  0  0  0  0
   -3.9352    3.5136   -1.2017 H   0  0  0  0  0  0  0  0  0  0  0  0
   -3.7704    2.1643    0.7502 H   0  0  0  0  0  0  0  0  0  0  0  0
   -3.8735    0.0603    1.9796 H   0  0  0  0  0  0  0  0  0  0  0  0
   -2.7300   -4.1942    2.8627 H   0  0  0  0  0  0  0  0  0  0  0  0
   -2.3030   -5.2021    1.4684 H   0  0  0  0  0  0  0  0  0  0  0  0
   -1.0351   -4.6351    2.5886 H   0  0  0  0  0  0  0  0  0  0  0  0
   -0.2810   -4.0337    0.0057 H   0  0  0  0  0  0  0  0  0  0  0  0
    3.2530    2.5843   -1.8322 H   0  0  0  0  0  0  0  0  0  0  0  0
    5.0599    3.4011   -0.3267 H   0  0  0  0  0  0  0  0  0  0  0  0
    5.8812    1.9757    1.5206 H   0  0  0  0  0  0  0  0  0  0  0  0
    4.9128   -0.2868    1.8946 H   0  0  0  0  0  0  0  0  0  0  0  0
   -0.7596    0.5146   -1.8160 H   0  0  0  0  0  0  0  0  0  0  0  0
  1  2  1  0
  2  3  1  0
  3  4  2  0
  4  5  1  0
  5  6  2  0
  6  7  1  0
  7  8  2  0
  8  9  1  0
  8 10  1  0
 10 11  2  0
 11 12  1  0
 12 13  1  0
 13 14  2  0
 14 15  1  0
 15 16  2  0
 16 17  1  0
 17 18  2  0
 18 19  1  0
 19 20  2  0
 20 21  1  0
 11 22  1  0
 22 23  2  0
 23  3  1  0
 22  6  1  0
 21 13  1  0
 20 15  1  0
  1 24  1  0
  1 25  1  0
  1 26  1  0
  4 27  1  0
  5 28  1  0
  9 29  1  0
  9 30  1  0
  9 31  1  0
 10 32  1  0
 16 33  1  0
 17 34  1  0
 18 35  1  0
 19 36  1  0
 23 37  1  0
M  END
$$$$
