
     RDKit          3D

 45 47  0  0  0  0  0  0  0  0999 V2000
    2.7048    0.6874   -2.9772 C   0  0  0  0  0  0  0  0  0  0  0  0
    3.6530    0.9045   -1.8367 C   0  0  0  0  0  0  0  0  0  0  0  0
    5.0248    0.7866   -2.0350 C   0  0  0  0  0  0  0  0  0  0  0  0
    5.8744    0.9825   -0.9517 C   0  0  0  0  0  0  0  0  0  0  0  0
    5.3309    1.2977    0.2891 C   0  0  0  0  0  0  0  0  0  0  0  0
    3.9550    1.4280    0.3896 C   0  0  0  0  0  0  0  0  0  0  0  0
    3.3721    1.6535    1.6483 N   0  0  0  0  0  0  0  0  0  0  0  0
    2.0323    2.6437    1.7690 S   0  0  0  0  0  6  0  0  0  0  0  0
    2.1797    3.7799    0.8835 O   0  0  0  0  0  0  0  0  0  0  0  0
    1.8492    2.8581    3.1928 O   0  0  0  0  0  0  0  0  0  0  0  0
    0.6778    1.6328    1.2317 C   0  0  0  0  0  0  0  0  0  0  0  0
    0.0258    1.9178    0.0315 C   0  0  0  0  0  0  0  0  0  0  0  0
   -1.0612    1.1360   -0.3652 C   0  0  0  0  0  0  0  0  0  0  0  0
   -1.5125    0.0735    0.4350 C   0  0  0  0  0  0  0  0  0  0  0  0
   -2.6967   -0.7615   -0.0230 C   0  0  0  0  0  0  0  0  0  0  0  0
   -3.8838   -0.6546    0.9500 C   0  0  0  0  0  0  0  0  0  0  0  0
   -5.0713   -1.4905    0.4755 C   0  0  0  0  0  0  0  0  0  0  0  0
   -4.6770   -2.9454    0.2384 C   0  0  0  0  0  0  0  0  0  0  0  0
   -3.4984   -3.0604   -0.7240 C   0  0  0  0  0  0  0  0  0  0  0  0
   -2.3042   -2.2311   -0.2547 C   0  0  0  0  0  0  0  0  0  0  0  0
   -0.8515   -0.1879    1.6467 C   0  0  0  0  0  0  0  0  0  0  0  0
    0.2366    0.5897    2.0487 C   0  0  0  0  0  0  0  0  0  0  0  0
    3.1144    1.2076   -0.6325 N   0  0  0  0  0  0  0  0  0  0  0  0
    1.6673    0.8153   -2.6525 H   0  0  0  0  0  0  0  0  0  0  0  0
    2.9030    1.4087   -3.7760 H   0  0  0  0  0  0  0  0  0  0  0  0
    2.8149   -0.3272   -3.3724 H   0  0  0  0  0  0  0  0  0  0  0  0
    5.4271    0.5409   -3.0128 H   0  0  0  0  0  0  0  0  0  0  0  0
    6.9496    0.8872   -1.0731 H   0  0  0  0  0  0  0  0  0  0  0  0
    5.9766    1.4441    1.1465 H   0  0  0  0  0  0  0  0  0  0  0  0
    3.9612    1.6886    2.4723 H   0  0  0  0  0  0  0  0  0  0  0  0
    0.3662    2.7334   -0.6023 H   0  0  0  0  0  0  0  0  0  0  0  0
   -1.5534    1.3646   -1.3081 H   0  0  0  0  0  0  0  0  0  0  0  0
   -3.0375   -0.3641   -0.9900 H   0  0  0  0  0  0  0  0  0  0  0  0
   -4.1945    0.3927    1.0506 H   0  0  0  0  0  0  0  0  0  0  0  0
   -3.5934   -0.9917    1.9531 H   0  0  0  0  0  0  0  0  0  0  0  0
   -5.4700   -1.0640   -0.4532 H   0  0  0  0  0  0  0  0  0  0  0  0
   -5.8751   -1.4432    1.2189 H   0  0  0  0  0  0  0  0  0  0  0  0
   -5.5341   -3.4989   -0.1612 H   0  0  0  0  0  0  0  0  0  0  0  0
   -4.4130   -3.4121    1.1954 H   0  0  0  0  0  0  0  0  0  0  0  0
   -3.2019   -4.1111   -0.8195 H   0  0  0  0  0  0  0  0  0  0  0  0
   -3.8069   -2.7239   -1.7214 H   0  0  0  0  0  0  0  0  0  0  0  0
   -1.5033   -2.2933   -1.0019 H   0  0  0  0  0  0  0  0  0  0  0  0
   -1.9064   -2.6750    0.6667 H   0  0  0  0  0  0  0  0  0  0  0  0
   -1.1813   -0.9996    2.2913 H   0  0  0  0  0  0  0  0  0  0  0  0
    0.7308    0.3806    2.9941 H   0  0  0  0  0  0  0  0  0  0  0  0
  1  2  1  0
  2  3  2  0
  3  4  1  0
  4  5  2  0
  5  6  1  0
  6  7  1  0
  7  8  1  0
  8  9  2  0
  8 10  2  0
  8 11  1  0
 11 12  2  0
 12 13  1  0
 13 14  2  0
 14 15  1  0
 15 16  1  0
 16 17  1  0
 17 18  1  0
 18 19  1  0
 19 20  1  0
 14 21  1  0
 21 22  2  0
  6 23  2  0
 23  2  1  0
 22 11  1  0
 20 15  1  0
  1 24  1  0
  1 25  1  0
  1 26  1  0
  3 27  1  0
  4 28  1  0
  5 29  1  0
  7 30  1  0
 12 31  1  0
 13 32  1  0
 15 33  1  0
 16 34  1  0
 16 35  1  0
 17 36  1  0
 17 37  1  0
 18 38  1  0
 18 39  1  0
 19 40  1  0
 19 41  1  0
 20 42  1  0
 20 43  1  0
 21 44  1  0
 22 45  1  0
M  END
$$$$
