
     RDKit          3D

 71 76  0  0  0  0  0  0  0  0999 V2000
   11.0420   -0.3347   -0.7209 C   0  0  0  0  0  0  0  0  0  0  0  0
    9.7195   -0.4618   -1.2299 O   0  0  0  0  0  0  0  0  0  0  0  0
    8.7051   -0.5088   -0.3141 C   0  0  0  0  0  0  0  0  0  0  0  0
    8.8466   -0.4239    1.0660 C   0  0  0  0  0  0  0  0  0  0  0  0
    7.7176   -0.5195    1.8780 C   0  0  0  0  0  0  0  0  0  0  0  0
    6.4478   -0.6862    1.3117 C   0  0  0  0  0  0  0  0  0  0  0  0
    6.2606   -0.7410   -0.0773 C   0  0  0  0  0  0  0  0  0  0  0  0
    5.0109   -0.9113   -0.6818 N   0  0  0  0  0  0  0  0  0  0  0  0
    4.6842    0.0083   -1.8096 C   0  0  0  0  0  0  0  0  0  0  0  0
    3.9890    1.2808   -1.2802 C   0  0  0  0  0  0  0  0  0  0  0  0
    2.7961    0.9299   -0.4921 N   0  0  0  0  0  0  0  0  0  0  0  0
    1.5522    1.0091   -1.1141 C   0  0  0  0  0  0  0  0  0  0  0  0
    1.4460    1.3993   -2.2780 O   0  0  0  0  0  0  0  0  0  0  0  0
    0.3197    0.6228   -0.2941 C   0  0  0  0  0  0  0  0  0  0  0  0
    0.1603    1.5317    0.9456 C   0  0  0  0  0  0  0  0  0  0  0  0
   -1.0859    2.4056    0.8708 C   0  0  0  0  0  0  0  0  0  0  0  0
   -2.3454    1.5642    0.6576 C   0  0  0  0  0  0  0  0  0  0  0  0
   -2.1277    0.5135   -0.3404 N   0  0  0  0  0  0  0  0  0  0  0  0
   -3.2665   -0.0748   -0.9028 C   0  0  0  0  0  0  0  0  0  0  0  0
   -3.1416   -0.7813   -2.0677 N   0  0  0  0  0  0  0  0  0  0  0  0
   -4.2238   -1.3644   -2.6223 C   0  0  0  0  0  0  0  0  0  0  0  0
   -5.4902   -1.3644   -2.1749 N   0  0  0  0  0  0  0  0  0  0  0  0
   -5.5888   -0.6748   -1.0273 C   0  0  0  0  0  0  0  0  0  0  0  0
   -4.5734   -0.0261   -0.3419 C   0  0  0  0  0  0  0  0  0  0  0  0
   -5.0838    0.5716    0.7996 N   0  0  0  0  0  0  0  0  0  0  0  0
   -6.3773    0.3131    0.7977 C   0  0  0  0  0  0  0  0  0  0  0  0
   -6.7208   -0.4538   -0.2897 N   0  0  0  0  0  0  0  0  0  0  0  0
   -8.0453   -0.9418   -0.6044 C   0  0  0  0  0  0  0  0  0  0  0  0
   -8.6442   -1.8183    0.4964 C   0  0  0  0  0  0  0  0  0  0  0  0
   -9.1579   -1.0290    1.7039 C   0  0  0  0  0  0  0  0  0  0  0  0
   -8.0679   -0.3494    2.5363 C   0  0  0  0  0  0  0  0  0  0  0  0
   -7.3601    0.7928    1.8108 C   0  0  0  0  0  0  0  0  0  0  0  0
   -0.9356    0.6286   -1.1874 C   0  0  0  0  0  0  0  0  0  0  0  0
    3.1033    0.0319    0.6335 C   0  0  0  0  0  0  0  0  0  0  0  0
    3.8167   -1.2452    0.1319 C   0  0  0  0  0  0  0  0  0  0  0  0
    7.4256   -0.6705   -0.8642 C   0  0  0  0  0  0  0  0  0  0  0  0
   11.1684    0.6086   -0.1784 H   0  0  0  0  0  0  0  0  0  0  0  0
   11.3052   -1.1919   -0.0920 H   0  0  0  0  0  0  0  0  0  0  0  0
   11.7299   -0.3263   -1.5723 H   0  0  0  0  0  0  0  0  0  0  0  0
    9.8135   -0.3011    1.5414 H   0  0  0  0  0  0  0  0  0  0  0  0
    7.8225   -0.4703    2.9596 H   0  0  0  0  0  0  0  0  0  0  0  0
    5.6108   -0.7586    1.9985 H   0  0  0  0  0  0  0  0  0  0  0  0
    5.5556    0.2874   -2.4075 H   0  0  0  0  0  0  0  0  0  0  0  0
    4.0023   -0.5220   -2.4876 H   0  0  0  0  0  0  0  0  0  0  0  0
    4.6639    1.8380   -0.6172 H   0  0  0  0  0  0  0  0  0  0  0  0
    3.7288    1.9424   -2.1138 H   0  0  0  0  0  0  0  0  0  0  0  0
    0.4617   -0.4151    0.0410 H   0  0  0  0  0  0  0  0  0  0  0  0
    0.0803    0.8924    1.8377 H   0  0  0  0  0  0  0  0  0  0  0  0
    1.0360    2.1742    1.1022 H   0  0  0  0  0  0  0  0  0  0  0  0
   -0.9762    3.1200    0.0462 H   0  0  0  0  0  0  0  0  0  0  0  0
   -1.1888    2.9961    1.7871 H   0  0  0  0  0  0  0  0  0  0  0  0
   -3.1491    2.2464    0.3579 H   0  0  0  0  0  0  0  0  0  0  0  0
   -2.6206    1.0956    1.6091 H   0  0  0  0  0  0  0  0  0  0  0  0
   -4.0451   -1.8972   -3.5519 H   0  0  0  0  0  0  0  0  0  0  0  0
   -7.9789   -1.5286   -1.5279 H   0  0  0  0  0  0  0  0  0  0  0  0
   -8.6743   -0.0705   -0.8150 H   0  0  0  0  0  0  0  0  0  0  0  0
   -7.9226   -2.5754    0.8265 H   0  0  0  0  0  0  0  0  0  0  0  0
   -9.4963   -2.3625    0.0695 H   0  0  0  0  0  0  0  0  0  0  0  0
   -9.6987   -1.7219    2.3594 H   0  0  0  0  0  0  0  0  0  0  0  0
   -9.8908   -0.2830    1.3719 H   0  0  0  0  0  0  0  0  0  0  0  0
   -7.3425   -1.0966    2.8827 H   0  0  0  0  0  0  0  0  0  0  0  0
   -8.5463    0.0631    3.4339 H   0  0  0  0  0  0  0  0  0  0  0  0
   -6.8200    1.3931    2.5530 H   0  0  0  0  0  0  0  0  0  0  0  0
   -8.0864    1.4650    1.3395 H   0  0  0  0  0  0  0  0  0  0  0  0
   -1.0086    1.5422   -1.7930 H   0  0  0  0  0  0  0  0  0  0  0  0
   -0.8371   -0.2071   -1.8920 H   0  0  0  0  0  0  0  0  0  0  0  0
    3.7477    0.5942    1.3189 H   0  0  0  0  0  0  0  0  0  0  0  0
    2.2097   -0.2493    1.1902 H   0  0  0  0  0  0  0  0  0  0  0  0
    4.0574   -1.9165    0.9631 H   0  0  0  0  0  0  0  0  0  0  0  0
    3.1234   -1.8047   -0.5098 H   0  0  0  0  0  0  0  0  0  0  0  0
    7.3580   -0.7827   -1.9433 H   0  0  0  0  0  0  0  0  0  0  0  0
  1  2  1  0
  2  3  1  0
  3  4  2  0
  4  5  1  0
  5  6  2  0
  6  7  1  0
  7  8  1  0
  8  9  1  0
  9 10  1  0
 10 11  1  0
 11 12  1  0
 12 13  2  0
 12 14  1  0
 14 15  1  0
 15 16  1  0
 16 17  1  0
 17 18  1  0
 18 19  1  0
 19 20  2  0
 20 21  1  0
 21 22  2  0
 22 23  1  0
 23 24  2  0
 24 25  1  0
 25 26  2  0
 26 27  1  0
 27 28  1  0
 28 29  1  0
 29 30  1  0
 30 31  1  0
 31 32  1  0
 18 33  1  0
 11 34  1  0
 34 35  1  0
  7 36  2  0
 36  3  1  0
 35  8  1  0
 33 14  1  0
 24 19  1  0
 32 26  1  0
 27 23  1  0
  1 37  1  0
  1 38  1  0
  1 39  1  0
  4 40  1  0
  5 41  1  0
  6 42  1  0
  9 43  1  0
  9 44  1  0
 10 45  1  0
 10 46  1  0
 14 47  1  0
 15 48  1  0
 15 49  1  0
 16 50  1  0
 16 51  1  0
 17 52  1  0
 17 53  1  0
 21 54  1  0
 28 55  1  0
 28 56  1  0
 29 57  1  0
 29 58  1  0
 30 59  1  0
 30 60  1  0
 31 61  1  0
 31 62  1  0
 32 63  1  0
 32 64  1  0
 33 65  1  0
 33 66  1  0
 34 67  1  0
 34 68  1  0
 35 69  1  0
 35 70  1  0
 36 71  1  0
M  END
$$$$
