
     RDKit          3D

 39 41  0  0  0  0  0  0  0  0999 V2000
   -4.3397   -2.2325   -0.4156 C   0  0  0  0  0  0  0  0  0  0  0  0
   -3.3988   -2.6591    0.6979 C   0  0  0  0  0  0  0  0  0  0  0  0
   -1.8291   -3.3123    0.0249 S   0  0  0  0  0  0  0  0  0  0  0  0
   -0.8534   -1.8179   -0.1099 C   0  0  0  0  0  0  0  0  0  0  0  0
    0.5114   -1.9391   -0.2803 C   0  0  0  0  0  0  0  0  0  0  0  0
    1.2488   -0.7768   -0.3633 C   0  0  0  0  0  0  0  0  0  0  0  0
    2.6115   -0.7930   -0.5365 N   0  0  0  0  0  0  0  0  0  0  0  0
    3.3594    0.4582   -0.5750 C   0  0  0  0  0  0  0  0  0  0  0  0
    4.8048   -0.0041   -0.7325 C   0  0  0  0  0  0  0  0  0  0  0  0
    4.8310   -1.2917    0.0738 C   0  0  0  0  0  0  0  0  0  0  0  0
    3.4729   -1.9272   -0.2252 C   0  0  0  0  0  0  0  0  0  0  0  0
    0.6345    0.4184   -0.3012 N   0  0  0  0  0  0  0  0  0  0  0  0
   -0.7008    0.4498   -0.1465 C   0  0  0  0  0  0  0  0  0  0  0  0
   -1.3540    1.7748   -0.0645 C   0  0  0  0  0  0  0  0  0  0  0  0
   -2.7596    1.9053   -0.0662 C   0  0  0  0  0  0  0  0  0  0  0  0
   -3.3782    3.1575    0.0166 C   0  0  0  0  0  0  0  0  0  0  0  0
   -2.5973    4.3001    0.1046 C   0  0  0  0  0  0  0  0  0  0  0  0
   -3.1880    5.4980    0.1946 F   0  0  0  0  0  0  0  0  0  0  0  0
   -1.2130    4.2164    0.1096 C   0  0  0  0  0  0  0  0  0  0  0  0
   -0.5976    2.9624    0.0230 C   0  0  0  0  0  0  0  0  0  0  0  0
   -1.4799   -0.6358   -0.0434 N   0  0  0  0  0  0  0  0  0  0  0  0
   -4.6486   -3.0887   -1.0278 H   0  0  0  0  0  0  0  0  0  0  0  0
   -3.8934   -1.4823   -1.0758 H   0  0  0  0  0  0  0  0  0  0  0  0
   -5.2511   -1.7951    0.0137 H   0  0  0  0  0  0  0  0  0  0  0  0
   -3.8693   -3.4622    1.2769 H   0  0  0  0  0  0  0  0  0  0  0  0
   -3.2120   -1.8400    1.4000 H   0  0  0  0  0  0  0  0  0  0  0  0
    0.9762   -2.9141   -0.3477 H   0  0  0  0  0  0  0  0  0  0  0  0
    3.0624    1.0959   -1.4134 H   0  0  0  0  0  0  0  0  0  0  0  0
    3.2403    1.0127    0.3669 H   0  0  0  0  0  0  0  0  0  0  0  0
    5.5234    0.7389   -0.3746 H   0  0  0  0  0  0  0  0  0  0  0  0
    5.0208   -0.2159   -1.7853 H   0  0  0  0  0  0  0  0  0  0  0  0
    4.9035   -1.0564    1.1431 H   0  0  0  0  0  0  0  0  0  0  0  0
    5.6686   -1.9455   -0.1903 H   0  0  0  0  0  0  0  0  0  0  0  0
    3.5382   -2.5904   -1.0942 H   0  0  0  0  0  0  0  0  0  0  0  0
    3.1316   -2.5036    0.6418 H   0  0  0  0  0  0  0  0  0  0  0  0
   -3.3885    1.0195   -0.1348 H   0  0  0  0  0  0  0  0  0  0  0  0
   -4.4615    3.2425    0.0142 H   0  0  0  0  0  0  0  0  0  0  0  0
   -0.6176    5.1204    0.1808 H   0  0  0  0  0  0  0  0  0  0  0  0
    0.4920    2.9128    0.0284 H   0  0  0  0  0  0  0  0  0  0  0  0
  1  2  1  0
  2  3  1  0
  3  4  1  0
  4  5  2  0
  5  6  1  0
  6  7  1  0
  7  8  1  0
  8  9  1  0
  9 10  1  0
 10 11  1  0
  6 12  2  0
 12 13  1  0
 13 14  1  0
 14 15  2  0
 15 16  1  0
 16 17  2  0
 17 18  1  0
 17 19  1  0
 19 20  2  0
 13 21  2  0
 21  4  1  0
 11  7  1  0
 20 14  1  0
  1 22  1  0
  1 23  1  0
  1 24  1  0
  2 25  1  0
  2 26  1  0
  5 27  1  0
  8 28  1  0
  8 29  1  0
  9 30  1  0
  9 31  1  0
 10 32  1  0
 10 33  1  0
 11 34  1  0
 11 35  1  0
 15 36  1  0
 16 37  1  0
 19 38  1  0
 20 39  1  0
M  END
$$$$
