
     RDKit          3D

 36 38  0  0  0  0  0  0  0  0999 V2000
   -1.0636   -1.2965    1.8567 O   0  0  0  0  0  0  0  0  0  0  0  0
   -0.3353   -0.7119    1.0607 C   0  0  0  0  0  0  0  0  0  0  0  0
   -0.7368   -0.1945   -0.1550 N   0  0  0  0  0  0  0  0  0  0  0  0
   -2.1327    0.0305   -0.2625 O   0  0  0  0  0  0  0  0  0  0  0  0
   -2.7049   -1.0129   -1.0576 C   0  0  0  0  0  0  0  0  0  0  0  0
   -4.2026   -0.8505   -1.0728 C   0  0  0  0  0  0  0  0  0  0  0  0
   -4.9286   -0.9162    0.1258 C   0  0  0  0  0  0  0  0  0  0  0  0
   -6.3175   -0.7808    0.1226 C   0  0  0  0  0  0  0  0  0  0  0  0
   -6.9951   -0.5802   -1.0784 C   0  0  0  0  0  0  0  0  0  0  0  0
   -6.2848   -0.5140   -2.2760 C   0  0  0  0  0  0  0  0  0  0  0  0
   -4.8949   -0.6490   -2.2747 C   0  0  0  0  0  0  0  0  0  0  0  0
    1.0763   -0.4732    1.3160 C   0  0  0  0  0  0  0  0  0  0  0  0
    1.7893   -0.8821    2.4172 C   0  0  0  0  0  0  0  0  0  0  0  0
    3.0731   -0.4541    2.2760 O   0  0  0  0  0  0  0  0  0  0  0  0
    3.0839    0.2113    1.0759 C   0  0  0  0  0  0  0  0  0  0  0  0
    4.3570    0.7915    0.6550 C   0  0  0  0  0  0  0  0  0  0  0  0
    5.5179    0.6813    1.4357 C   0  0  0  0  0  0  0  0  0  0  0  0
    6.7230    1.2464    1.0085 C   0  0  0  0  0  0  0  0  0  0  0  0
    6.7828    1.9289   -0.2045 C   0  0  0  0  0  0  0  0  0  0  0  0
    5.6399    2.0477   -0.9917 C   0  0  0  0  0  0  0  0  0  0  0  0
    4.4355    1.4825   -0.5643 C   0  0  0  0  0  0  0  0  0  0  0  0
    1.9132    0.2309    0.4618 N   0  0  0  0  0  0  0  0  0  0  0  0
   -0.1434    0.5309   -0.5503 H   0  0  0  0  0  0  0  0  0  0  0  0
   -2.4546   -1.9963   -0.6405 H   0  0  0  0  0  0  0  0  0  0  0  0
   -2.2951   -0.9510   -2.0727 H   0  0  0  0  0  0  0  0  0  0  0  0
   -4.4060   -1.0683    1.0693 H   0  0  0  0  0  0  0  0  0  0  0  0
   -6.8683   -0.8300    1.0580 H   0  0  0  0  0  0  0  0  0  0  0  0
   -8.0765   -0.4735   -1.0804 H   0  0  0  0  0  0  0  0  0  0  0  0
   -6.8140   -0.3558   -3.2120 H   0  0  0  0  0  0  0  0  0  0  0  0
   -4.3575   -0.5933   -3.2183 H   0  0  0  0  0  0  0  0  0  0  0  0
    1.5536   -1.4373    3.3136 H   0  0  0  0  0  0  0  0  0  0  0  0
    5.4965    0.1534    2.3870 H   0  0  0  0  0  0  0  0  0  0  0  0
    7.6142    1.1530    1.6243 H   0  0  0  0  0  0  0  0  0  0  0  0
    7.7202    2.3684   -0.5361 H   0  0  0  0  0  0  0  0  0  0  0  0
    5.6839    2.5800   -1.9386 H   0  0  0  0  0  0  0  0  0  0  0  0
    3.5517    1.5846   -1.1916 H   0  0  0  0  0  0  0  0  0  0  0  0
  1  2  2  0
  2  3  1  0
  3  4  1  0
  4  5  1  0
  5  6  1  0
  6  7  2  0
  7  8  1  0
  8  9  2  0
  9 10  1  0
 10 11  2  0
  2 12  1  0
 12 13  2  0
 13 14  1  0
 14 15  1  0
 15 16  1  0
 16 17  2  0
 17 18  1  0
 18 19  2  0
 19 20  1  0
 20 21  2  0
 15 22  2  0
 11  6  1  0
 22 12  1  0
 21 16  1  0
  3 23  1  0
  5 24  1  0
  5 25  1  0
  7 26  1  0
  8 27  1  0
  9 28  1  0
 10 29  1  0
 11 30  1  0
 13 31  1  0
 17 32  1  0
 18 33  1  0
 19 34  1  0
 20 35  1  0
 21 36  1  0
M  END
$$$$
