
     RDKit          3D

 59 60  0  0  0  0  0  0  0  0999 V2000
    7.1339   -0.1969   -0.5963 C   0  0  0  0  0  0  0  0  0  0  0  0
    5.8596   -1.0407   -0.6776 C   0  0  0  0  0  0  0  0  0  0  0  0
    6.0274   -2.1286   -1.7393 C   0  0  0  0  0  0  0  0  0  0  0  0
    4.6486   -0.1326   -0.9553 C   0  0  0  0  0  0  0  0  0  0  0  0
    3.3132   -0.8713   -0.9135 C   0  0  0  0  0  0  0  0  0  0  0  0
    2.2033    0.0463   -1.0679 N   0  0  0  0  0  0  0  0  0  0  0  0
    0.9108   -0.3158   -0.7415 C   0  0  0  0  0  0  0  0  0  0  0  0
    0.6605   -1.3788   -0.1776 O   0  0  0  0  0  0  0  0  0  0  0  0
   -0.1030    0.6417   -1.1203 C   0  0  0  0  0  0  0  0  0  0  0  0
    0.3268    1.7732   -1.7487 O   0  0  0  0  0  0  0  0  0  0  0  0
   -0.7367    2.5760   -2.0678 N   0  0  0  0  0  0  0  0  0  0  0  0
   -1.8261    1.9403   -1.6174 C   0  0  0  0  0  0  0  0  0  0  0  0
   -3.1724    2.5728   -1.7848 C   0  0  0  0  0  0  0  0  0  0  0  0
   -3.7486    3.3520   -0.2368 S   0  0  0  0  0  0  0  0  0  0  0  0
   -2.7633    4.8329   -0.2627 C   0  0  0  0  0  0  0  0  0  0  0  0
   -2.1450    5.2614    0.9061 C   0  0  0  0  0  0  0  0  0  0  0  0
   -1.3971    6.4357    0.8762 C   0  0  0  0  0  0  0  0  0  0  0  0
   -1.2974    7.1466   -0.3129 C   0  0  0  0  0  0  0  0  0  0  0  0
   -1.9582    6.6536   -1.4252 C   0  0  0  0  0  0  0  0  0  0  0  0
   -2.6935    5.5207   -1.4235 N   0  0  0  0  0  0  0  0  0  0  0  0
   -1.4847    0.6843   -1.0118 C   0  0  0  0  0  0  0  0  0  0  0  0
   -2.4238   -0.2754   -0.4492 C   0  0  0  0  0  0  0  0  0  0  0  0
   -3.6259   -0.1946   -0.6864 O   0  0  0  0  0  0  0  0  0  0  0  0
   -1.9183   -1.2682    0.3583 N   0  0  0  0  0  0  0  0  0  0  0  0
   -2.7661   -2.3372    0.8491 C   0  0  0  0  0  0  0  0  0  0  0  0
   -2.0888   -3.0920    1.9917 C   0  0  0  0  0  0  0  0  0  0  0  0
   -2.9054   -4.2528    2.5882 C   0  0  0  0  0  0  0  0  0  0  0  0
   -3.1817   -5.3545    1.5651 C   0  0  0  0  0  0  0  0  0  0  0  0
   -4.2102   -3.7778    3.2276 C   0  0  0  0  0  0  0  0  0  0  0  0
    7.0492    0.5619    0.1888 H   0  0  0  0  0  0  0  0  0  0  0  0
    7.3326    0.3157   -1.5437 H   0  0  0  0  0  0  0  0  0  0  0  0
    8.0012   -0.8229   -0.3611 H   0  0  0  0  0  0  0  0  0  0  0  0
    5.7177   -1.5290    0.2948 H   0  0  0  0  0  0  0  0  0  0  0  0
    6.1089   -1.6956   -2.7420 H   0  0  0  0  0  0  0  0  0  0  0  0
    5.1822   -2.8234   -1.7350 H   0  0  0  0  0  0  0  0  0  0  0  0
    6.9315   -2.7179   -1.5516 H   0  0  0  0  0  0  0  0  0  0  0  0
    4.7641    0.3587   -1.9304 H   0  0  0  0  0  0  0  0  0  0  0  0
    4.6273    0.6729   -0.2090 H   0  0  0  0  0  0  0  0  0  0  0  0
    3.2364   -1.5994   -1.7273 H   0  0  0  0  0  0  0  0  0  0  0  0
    3.1986   -1.4099    0.0337 H   0  0  0  0  0  0  0  0  0  0  0  0
    2.3182    0.8553   -1.6693 H   0  0  0  0  0  0  0  0  0  0  0  0
   -3.1659    3.3007   -2.6034 H   0  0  0  0  0  0  0  0  0  0  0  0
   -3.9080    1.8166   -2.0752 H   0  0  0  0  0  0  0  0  0  0  0  0
   -2.2376    4.6950    1.8266 H   0  0  0  0  0  0  0  0  0  0  0  0
   -0.8989    6.7907    1.7736 H   0  0  0  0  0  0  0  0  0  0  0  0
   -0.7222    8.0637   -0.3720 H   0  0  0  0  0  0  0  0  0  0  0  0
   -1.9146    7.1736   -2.3779 H   0  0  0  0  0  0  0  0  0  0  0  0
   -0.9172   -1.4512    0.3448 H   0  0  0  0  0  0  0  0  0  0  0  0
   -2.9662   -2.9988    0.0002 H   0  0  0  0  0  0  0  0  0  0  0  0
   -3.7178   -1.9038    1.1728 H   0  0  0  0  0  0  0  0  0  0  0  0
   -1.8455   -2.3814    2.7928 H   0  0  0  0  0  0  0  0  0  0  0  0
   -1.1251   -3.4837    1.6395 H   0  0  0  0  0  0  0  0  0  0  0  0
   -2.2930   -4.6939    3.3859 H   0  0  0  0  0  0  0  0  0  0  0  0
   -3.8620   -5.0171    0.7766 H   0  0  0  0  0  0  0  0  0  0  0  0
   -2.2521   -5.6919    1.0948 H   0  0  0  0  0  0  0  0  0  0  0  0
   -3.6431   -6.2213    2.0505 H   0  0  0  0  0  0  0  0  0  0  0  0
   -4.6970   -4.6011    3.7616 H   0  0  0  0  0  0  0  0  0  0  0  0
   -4.9182   -3.4051    2.4806 H   0  0  0  0  0  0  0  0  0  0  0  0
   -4.0214   -2.9775    3.9507 H   0  0  0  0  0  0  0  0  0  0  0  0
  1  2  1  0
  2  3  1  0
  2  4  1  0
  4  5  1  0
  5  6  1  0
  6  7  1  0
  7  8  2  0
  7  9  1  0
  9 10  1  0
 10 11  1  0
 11 12  2  0
 12 13  1  0
 13 14  1  0
 14 15  1  0
 15 16  2  0
 16 17  1  0
 17 18  2  0
 18 19  1  0
 19 20  2  0
 12 21  1  0
 21 22  1  0
 22 23  2  0
 22 24  1  0
 24 25  1  0
 25 26  1  0
 26 27  1  0
 27 28  1  0
 27 29  1  0
 21  9  2  0
 20 15  1  0
  1 30  1  0
  1 31  1  0
  1 32  1  0
  2 33  1  0
  3 34  1  0
  3 35  1  0
  3 36  1  0
  4 37  1  0
  4 38  1  0
  5 39  1  0
  5 40  1  0
  6 41  1  0
 13 42  1  0
 13 43  1  0
 16 44  1  0
 17 45  1  0
 18 46  1  0
 19 47  1  0
 24 48  1  0
 25 49  1  0
 25 50  1  0
 26 51  1  0
 26 52  1  0
 27 53  1  0
 28 54  1  0
 28 55  1  0
 28 56  1  0
 29 57  1  0
 29 58  1  0
 29 59  1  0
M  END
$$$$
