
     RDKit          3D

 53 56  0  0  0  0  0  0  0  0999 V2000
   -0.6577   -3.9214   -1.6522 C   0  0  0  0  0  0  0  0  0  0  0  0
   -0.9213   -3.4183   -0.2572 C   0  0  0  0  0  0  0  0  0  0  0  0
   -0.3130   -3.8600    0.7173 O   0  0  0  0  0  0  0  0  0  0  0  0
   -1.9387   -2.3514   -0.1024 C   0  0  0  0  0  0  0  0  0  0  0  0
   -1.5681   -1.0581   -0.2624 C   0  0  0  0  0  0  0  0  0  0  0  0
   -0.2568   -0.6246   -0.4913 N   0  0  0  0  0  0  0  0  0  0  0  0
    0.8706   -1.0289    0.3927 C   0  0  0  0  0  0  0  0  0  0  0  0
    1.8587    0.1352    0.6321 C   0  0  0  0  0  0  0  0  0  0  0  0
    2.4333    0.7399   -0.5923 N   0  0  0  0  0  0  0  0  0  0  0  0
    3.7850    0.2392   -0.8911 C   0  0  0  0  0  0  0  0  0  0  0  0
    4.8340    0.7180    0.0909 C   0  0  0  0  0  0  0  0  0  0  0  0
    5.6819   -0.1981    0.7306 C   0  0  0  0  0  0  0  0  0  0  0  0
    6.6612    0.2452    1.6217 C   0  0  0  0  0  0  0  0  0  0  0  0
    6.8077    1.6072    1.8785 C   0  0  0  0  0  0  0  0  0  0  0  0
    5.9767    2.5282    1.2439 C   0  0  0  0  0  0  0  0  0  0  0  0
    4.9974    2.0868    0.3529 C   0  0  0  0  0  0  0  0  0  0  0  0
    1.5457    0.5347   -1.7566 C   0  0  0  0  0  0  0  0  0  0  0  0
    0.0497    0.5160   -1.3832 C   0  0  0  0  0  0  0  0  0  0  0  0
   -2.5669   -0.1113   -0.2050 N   0  0  0  0  0  0  0  0  0  0  0  0
   -3.8575   -0.4098    0.1462 C   0  0  0  0  0  0  0  0  0  0  0  0
   -4.8384    0.7001    0.3649 C   0  0  0  0  0  0  0  0  0  0  0  0
   -4.6512    1.9566   -0.2261 C   0  0  0  0  0  0  0  0  0  0  0  0
   -5.5758    2.9799   -0.0016 C   0  0  0  0  0  0  0  0  0  0  0  0
   -6.6892    2.7525    0.8069 C   0  0  0  0  0  0  0  0  0  0  0  0
   -6.8862    1.5008    1.3879 C   0  0  0  0  0  0  0  0  0  0  0  0
   -5.9654    0.4752    1.1658 C   0  0  0  0  0  0  0  0  0  0  0  0
   -4.2661   -1.6313    0.3088 N   0  0  0  0  0  0  0  0  0  0  0  0
   -3.3904   -2.6832    0.1102 C   0  0  0  0  0  0  0  0  0  0  0  0
   -3.9894   -4.2696    0.1129 S   0  0  0  0  0  0  0  0  0  0  0  0
    0.3713   -3.6807   -1.9320 H   0  0  0  0  0  0  0  0  0  0  0  0
   -1.3340   -3.4559   -2.3750 H   0  0  0  0  0  0  0  0  0  0  0  0
   -0.8117   -5.0033   -1.6803 H   0  0  0  0  0  0  0  0  0  0  0  0
    0.4885   -1.3560    1.3669 H   0  0  0  0  0  0  0  0  0  0  0  0
    1.4049   -1.8680   -0.0673 H   0  0  0  0  0  0  0  0  0  0  0  0
    2.6343   -0.1919    1.3338 H   0  0  0  0  0  0  0  0  0  0  0  0
    1.3156    0.9355    1.1521 H   0  0  0  0  0  0  0  0  0  0  0  0
    3.7817   -0.8576   -0.9450 H   0  0  0  0  0  0  0  0  0  0  0  0
    4.1042    0.5985   -1.8790 H   0  0  0  0  0  0  0  0  0  0  0  0
    5.5842   -1.2647    0.5419 H   0  0  0  0  0  0  0  0  0  0  0  0
    7.3106   -0.4728    2.1158 H   0  0  0  0  0  0  0  0  0  0  0  0
    7.5696    1.9509    2.5729 H   0  0  0  0  0  0  0  0  0  0  0  0
    6.0896    3.5906    1.4428 H   0  0  0  0  0  0  0  0  0  0  0  0
    4.3512    2.8132   -0.1357 H   0  0  0  0  0  0  0  0  0  0  0  0
    1.7254    1.3381   -2.4800 H   0  0  0  0  0  0  0  0  0  0  0  0
    1.7798   -0.4147   -2.2581 H   0  0  0  0  0  0  0  0  0  0  0  0
   -0.5417    0.4283   -2.3025 H   0  0  0  0  0  0  0  0  0  0  0  0
   -0.2263    1.4592   -0.8958 H   0  0  0  0  0  0  0  0  0  0  0  0
   -2.2239    0.8268   -0.0508 H   0  0  0  0  0  0  0  0  0  0  0  0
   -3.8107    2.1517   -0.8846 H   0  0  0  0  0  0  0  0  0  0  0  0
   -5.4342    3.9536   -0.4645 H   0  0  0  0  0  0  0  0  0  0  0  0
   -7.4094    3.5489    0.9783 H   0  0  0  0  0  0  0  0  0  0  0  0
   -7.7580    1.3196    2.0119 H   0  0  0  0  0  0  0  0  0  0  0  0
   -6.1309   -0.4985    1.6228 H   0  0  0  0  0  0  0  0  0  0  0  0
  1  2  1  0
  2  3  2  0
  2  4  1  0
  4  5  2  0
  5  6  1  0
  6  7  1  0
  7  8  1  0
  8  9  1  0
  9 10  1  0
 10 11  1  0
 11 12  2  0
 12 13  1  0
 13 14  2  0
 14 15  1  0
 15 16  2  0
  9 17  1  0
 17 18  1  0
  5 19  1  0
 19 20  1  0
 20 21  1  0
 21 22  2  0
 22 23  1  0
 23 24  2  0
 24 25  1  0
 25 26  2  0
 20 27  2  0
 27 28  1  0
 28 29  2  0
 28  4  1  0
 18  6  1  0
 26 21  1  0
 16 11  1  0
  1 30  1  0
  1 31  1  0
  1 32  1  0
  7 33  1  0
  7 34  1  0
  8 35  1  0
  8 36  1  0
 10 37  1  0
 10 38  1  0
 12 39  1  0
 13 40  1  0
 14 41  1  0
 15 42  1  0
 16 43  1  0
 17 44  1  0
 17 45  1  0
 18 46  1  0
 18 47  1  0
 19 48  1  0
 22 49  1  0
 23 50  1  0
 24 51  1  0
 25 52  1  0
 26 53  1  0
M  END
$$$$
