
     RDKit          3D

 55 58  0  0  0  0  0  0  0  0999 V2000
    1.9818   -4.8535   -4.3603 C   0  0  0  0  0  0  0  0  0  0  0  0
    1.6654   -3.4699   -4.2503 O   0  0  0  0  0  0  0  0  0  0  0  0
    1.6527   -2.9494   -2.9818 C   0  0  0  0  0  0  0  0  0  0  0  0
    2.4345   -3.4658   -1.9440 C   0  0  0  0  0  0  0  0  0  0  0  0
    2.3688   -2.9104   -0.6681 C   0  0  0  0  0  0  0  0  0  0  0  0
    1.5114   -1.8432   -0.4120 C   0  0  0  0  0  0  0  0  0  0  0  0
    0.7029   -1.3079   -1.4272 C   0  0  0  0  0  0  0  0  0  0  0  0
   -0.2295   -0.1332   -1.1696 C   0  0  0  0  0  0  0  0  0  0  0  0
    0.5489    1.1875   -1.2935 C   0  0  0  0  0  0  0  0  0  0  0  0
    0.7903    1.5458    0.1584 C   0  0  0  0  0  0  0  0  0  0  0  0
    1.7916    2.5610    0.5575 C   0  0  0  0  0  0  0  0  0  0  0  0
    2.4549    3.3468   -0.3914 C   0  0  0  0  0  0  0  0  0  0  0  0
    3.3950    4.2954    0.0202 C   0  0  0  0  0  0  0  0  0  0  0  0
    3.6738    4.4637    1.3759 C   0  0  0  0  0  0  0  0  0  0  0  0
    3.0126    3.6866    2.3250 C   0  0  0  0  0  0  0  0  0  0  0  0
    2.0725    2.7380    1.9183 C   0  0  0  0  0  0  0  0  0  0  0  0
    0.0380    0.9159    1.0117 N   0  0  0  0  0  0  0  0  0  0  0  0
   -0.8050    0.0092    0.1842 N   0  0  0  0  0  0  0  0  0  0  0  0
   -1.7119   -1.2489    0.8616 S   0  0  0  0  0  6  0  0  0  0  0  0
   -0.8523   -2.1128    1.6468 O   0  0  0  0  0  0  0  0  0  0  0  0
   -2.5782   -1.7955   -0.1653 O   0  0  0  0  0  0  0  0  0  0  0  0
   -2.7506   -0.3575    2.0019 C   0  0  0  0  0  0  0  0  0  0  0  0
   -2.2960   -0.1121    3.3000 C   0  0  0  0  0  0  0  0  0  0  0  0
   -3.1210    0.5606    4.2029 C   0  0  0  0  0  0  0  0  0  0  0  0
   -4.4061    0.9706    3.8211 C   0  0  0  0  0  0  0  0  0  0  0  0
   -5.2779    1.7221    4.7839 C   0  0  0  0  0  0  0  0  0  0  0  0
   -4.8484    0.7187    2.5147 C   0  0  0  0  0  0  0  0  0  0  0  0
   -4.0280    0.0471    1.6063 C   0  0  0  0  0  0  0  0  0  0  0  0
    0.8262   -1.8349   -2.7328 C   0  0  0  0  0  0  0  0  0  0  0  0
    0.0539   -1.2214   -3.6926 O   0  0  0  0  0  0  0  0  0  0  0  0
    0.7117   -0.9764   -4.9332 C   0  0  0  0  0  0  0  0  0  0  0  0
    3.0599   -5.0130   -4.2587 H   0  0  0  0  0  0  0  0  0  0  0  0
    1.4232   -5.4574   -3.6366 H   0  0  0  0  0  0  0  0  0  0  0  0
    1.6913   -5.1825   -5.3626 H   0  0  0  0  0  0  0  0  0  0  0  0
    3.1119   -4.2984   -2.1019 H   0  0  0  0  0  0  0  0  0  0  0  0
    2.9764   -3.3182    0.1363 H   0  0  0  0  0  0  0  0  0  0  0  0
    1.4755   -1.4424    0.5997 H   0  0  0  0  0  0  0  0  0  0  0  0
   -1.0612   -0.1379   -1.8833 H   0  0  0  0  0  0  0  0  0  0  0  0
    1.4762    1.1009   -1.8658 H   0  0  0  0  0  0  0  0  0  0  0  0
   -0.0829    1.9689   -1.7312 H   0  0  0  0  0  0  0  0  0  0  0  0
    2.2542    3.2475   -1.4538 H   0  0  0  0  0  0  0  0  0  0  0  0
    3.9098    4.9063   -0.7177 H   0  0  0  0  0  0  0  0  0  0  0  0
    4.4055    5.2028    1.6934 H   0  0  0  0  0  0  0  0  0  0  0  0
    3.2272    3.8183    3.3827 H   0  0  0  0  0  0  0  0  0  0  0  0
    1.5641    2.1391    2.6713 H   0  0  0  0  0  0  0  0  0  0  0  0
   -1.3025   -0.4320    3.6061 H   0  0  0  0  0  0  0  0  0  0  0  0
   -2.7559    0.7607    5.2080 H   0  0  0  0  0  0  0  0  0  0  0  0
   -6.3371    1.5278    4.5851 H   0  0  0  0  0  0  0  0  0  0  0  0
   -5.0923    2.7969    4.6956 H   0  0  0  0  0  0  0  0  0  0  0  0
   -5.0793    1.4116    5.8151 H   0  0  0  0  0  0  0  0  0  0  0  0
   -5.8384    1.0408    2.1986 H   0  0  0  0  0  0  0  0  0  0  0  0
   -4.3884   -0.1537    0.6002 H   0  0  0  0  0  0  0  0  0  0  0  0
    0.5173   -1.7932   -5.6342 H   0  0  0  0  0  0  0  0  0  0  0  0
    0.2763   -0.0680   -5.3618 H   0  0  0  0  0  0  0  0  0  0  0  0
    1.7871   -0.8014   -4.8161 H   0  0  0  0  0  0  0  0  0  0  0  0
  1  2  1  0
  2  3  1  0
  3  4  2  0
  4  5  1  0
  5  6  2  0
  6  7  1  0
  7  8  1  0
  8  9  1  0
  9 10  1  0
 10 11  1  0
 11 12  2  0
 12 13  1  0
 13 14  2  0
 14 15  1  0
 15 16  2  0
 10 17  2  0
 17 18  1  0
 18 19  1  0
 19 20  2  0
 19 21  2  0
 19 22  1  0
 22 23  2  0
 23 24  1  0
 24 25  2  0
 25 26  1  0
 25 27  1  0
 27 28  2  0
  7 29  2  0
 29 30  1  0
 30 31  1  0
 29  3  1  0
 18  8  1  0
 28 22  1  0
 16 11  1  0
  1 32  1  0
  1 33  1  0
  1 34  1  0
  4 35  1  0
  5 36  1  0
  6 37  1  0
  8 38  1  0
  9 39  1  0
  9 40  1  0
 12 41  1  0
 13 42  1  0
 14 43  1  0
 15 44  1  0
 16 45  1  0
 23 46  1  0
 24 47  1  0
 26 48  1  0
 26 49  1  0
 26 50  1  0
 27 51  1  0
 28 52  1  0
 31 53  1  0
 31 54  1  0
 31 55  1  0
M  END
$$$$
