
     RDKit          3D

 41 43  0  0  0  0  0  0  0  0999 V2000
    3.9640   -1.3747    0.6897 Cl  0  0  0  0  0  0  0  0  0  0  0  0
    4.6056   -1.3128   -0.9151 C   0  0  0  0  0  0  0  0  0  0  0  0
    5.6732   -2.1669   -1.2110 C   0  0  0  0  0  0  0  0  0  0  0  0
    6.2477   -2.1624   -2.4811 C   0  0  0  0  0  0  0  0  0  0  0  0
    5.7566   -1.3034   -3.4592 C   0  0  0  0  0  0  0  0  0  0  0  0
    4.6905   -0.4504   -3.1682 C   0  0  0  0  0  0  0  0  0  0  0  0
    4.0958   -0.4403   -1.8915 C   0  0  0  0  0  0  0  0  0  0  0  0
    2.9388    0.4929   -1.6353 C   0  0  0  0  0  0  0  0  0  0  0  0
    1.3857   -0.0064   -2.4388 S   0  0  0  0  0  0  0  0  0  0  0  0
    1.0616   -1.4930   -1.6204 C   0  0  0  0  0  0  0  0  0  0  0  0
    1.4769   -2.6878   -1.9756 N   0  0  0  0  0  0  0  0  0  0  0  0
    1.0221   -3.5846   -1.0282 N   0  0  0  0  0  0  0  0  0  0  0  0
    0.3377   -2.9052   -0.1337 C   0  0  0  0  0  0  0  0  0  0  0  0
    0.3013   -1.5861   -0.4820 N   0  0  0  0  0  0  0  0  0  0  0  0
   -0.3673   -0.5406    0.2445 N   0  0  0  0  0  0  0  0  0  0  0  0
   -1.7500   -0.4152   -0.2154 C   0  0  0  0  0  0  0  0  0  0  0  0
   -2.4432    0.6599    0.5652 C   0  0  0  0  0  0  0  0  0  0  0  0
   -3.5085    0.4426    1.3541 C   0  0  0  0  0  0  0  0  0  0  0  0
   -4.1927    1.4945    2.1179 C   0  0  0  0  0  0  0  0  0  0  0  0
   -4.6652    1.2001    3.4033 C   0  0  0  0  0  0  0  0  0  0  0  0
   -5.3455    2.1655    4.1498 C   0  0  0  0  0  0  0  0  0  0  0  0
   -5.5702    3.4315    3.6135 C   0  0  0  0  0  0  0  0  0  0  0  0
   -5.1192    3.7314    2.3298 C   0  0  0  0  0  0  0  0  0  0  0  0
   -4.4379    2.7661    1.5834 C   0  0  0  0  0  0  0  0  0  0  0  0
    6.0582   -2.8463   -0.4546 H   0  0  0  0  0  0  0  0  0  0  0  0
    7.0716   -2.8340   -2.7080 H   0  0  0  0  0  0  0  0  0  0  0  0
    6.1963   -1.3037   -4.4536 H   0  0  0  0  0  0  0  0  0  0  0  0
    4.3148    0.2041   -3.9532 H   0  0  0  0  0  0  0  0  0  0  0  0
    3.2041    1.4833   -2.0253 H   0  0  0  0  0  0  0  0  0  0  0  0
    2.7526    0.6511   -0.5693 H   0  0  0  0  0  0  0  0  0  0  0  0
   -0.1417   -3.2999    0.7491 H   0  0  0  0  0  0  0  0  0  0  0  0
    0.1058    0.3491    0.0983 H   0  0  0  0  0  0  0  0  0  0  0  0
   -2.2779   -1.3698   -0.0984 H   0  0  0  0  0  0  0  0  0  0  0  0
   -1.7847   -0.1481   -1.2785 H   0  0  0  0  0  0  0  0  0  0  0  0
   -2.0412    1.6651    0.4627 H   0  0  0  0  0  0  0  0  0  0  0  0
   -3.9012   -0.5639    1.4818 H   0  0  0  0  0  0  0  0  0  0  0  0
   -4.4990    0.2177    3.8396 H   0  0  0  0  0  0  0  0  0  0  0  0
   -5.7003    1.9274    5.1492 H   0  0  0  0  0  0  0  0  0  0  0  0
   -6.1007    4.1821    4.1935 H   0  0  0  0  0  0  0  0  0  0  0  0
   -5.3022    4.7152    1.9056 H   0  0  0  0  0  0  0  0  0  0  0  0
   -4.1125    3.0160    0.5769 H   0  0  0  0  0  0  0  0  0  0  0  0
  1  2  1  0
  2  3  2  0
  3  4  1  0
  4  5  2  0
  5  6  1  0
  6  7  2  0
  7  8  1  0
  8  9  1  0
  9 10  1  0
 10 11  2  0
 11 12  1  0
 12 13  2  0
 13 14  1  0
 14 15  1  0
 15 16  1  0
 16 17  1  0
 17 18  2  3
 18 19  1  0
 19 20  2  0
 20 21  1  0
 21 22  2  0
 22 23  1  0
 23 24  2  0
  7  2  1  0
 14 10  1  0
 24 19  1  0
  3 25  1  0
  4 26  1  0
  5 27  1  0
  6 28  1  0
  8 29  1  0
  8 30  1  0
 13 31  1  0
 15 32  1  0
 16 33  1  0
 16 34  1  0
 17 35  1  0
 18 36  1  0
 20 37  1  0
 21 38  1  0
 22 39  1  0
 23 40  1  0
 24 41  1  0
M  END
$$$$
