
     RDKit          3D

 48 50  0  0  0  0  0  0  0  0999 V2000
   -2.5206    1.9461   -0.7623 O   0  0  0  0  0  0  0  0  0  0  0  0
   -2.3211    0.8016   -0.3406 C   0  0  0  0  0  0  0  0  0  0  0  0
   -0.9914    0.4632    0.3403 C   0  0  0  0  0  0  0  0  0  0  0  0
    0.1243    0.8904   -0.5330 N   0  0  0  0  0  0  0  0  0  0  0  0
    1.1046    1.7866   -0.0050 C   0  0  0  0  0  0  0  0  0  0  0  0
    1.4241    2.9359   -0.7231 C   0  0  0  0  0  0  0  0  0  0  0  0
    2.4189    3.7965   -0.2580 C   0  0  0  0  0  0  0  0  0  0  0  0
    3.1074    3.5054    0.9237 C   0  0  0  0  0  0  0  0  0  0  0  0
    4.3323    4.6117    1.4263 Cl  0  0  0  0  0  0  0  0  0  0  0  0
    2.8064    2.3489    1.6539 C   0  0  0  0  0  0  0  0  0  0  0  0
    3.5427    2.0019    2.9190 C   0  0  0  0  0  0  0  0  0  0  0  0
    4.8737    1.7995    2.7226 F   0  0  0  0  0  0  0  0  0  0  0  0
    3.0856    0.8515    3.4968 F   0  0  0  0  0  0  0  0  0  0  0  0
    3.4303    2.9541    3.8840 F   0  0  0  0  0  0  0  0  0  0  0  0
    1.7969    1.4909    1.1730 C   0  0  0  0  0  0  0  0  0  0  0  0
    0.6019   -0.1706   -1.7720 S   0  0  0  0  0  6  0  0  0  0  0  0
   -0.5371   -0.9864   -2.1429 O   0  0  0  0  0  0  0  0  0  0  0  0
    1.3515    0.5595   -2.7729 O   0  0  0  0  0  0  0  0  0  0  0  0
    1.7589   -1.2483   -0.9408 C   0  0  0  0  0  0  0  0  0  0  0  0
    3.1198   -0.9221   -0.9359 C   0  0  0  0  0  0  0  0  0  0  0  0
    4.0255   -1.7609   -0.2879 C   0  0  0  0  0  0  0  0  0  0  0  0
    3.5752   -2.9273    0.3322 C   0  0  0  0  0  0  0  0  0  0  0  0
    2.2211   -3.2656    0.2981 C   0  0  0  0  0  0  0  0  0  0  0  0
    1.3081   -2.4304   -0.3459 C   0  0  0  0  0  0  0  0  0  0  0  0
   -3.3054   -0.1703   -0.4198 N   0  0  0  0  0  0  0  0  0  0  0  0
   -3.1483   -1.5862   -0.0760 C   0  0  0  0  0  0  0  0  0  0  0  0
   -4.1820   -2.4596   -0.7953 C   0  0  0  0  0  0  0  0  0  0  0  0
   -5.5309   -2.0791   -0.5038 O   0  0  0  0  0  0  0  0  0  0  0  0
   -5.7257   -0.6615   -0.3897 C   0  0  0  0  0  0  0  0  0  0  0  0
   -4.6036    0.1844   -1.0003 C   0  0  0  0  0  0  0  0  0  0  0  0
   -0.8869   -0.5850    0.6174 H   0  0  0  0  0  0  0  0  0  0  0  0
   -0.9895    1.0224    1.2843 H   0  0  0  0  0  0  0  0  0  0  0  0
    0.8995    3.1662   -1.6489 H   0  0  0  0  0  0  0  0  0  0  0  0
    2.6548    4.6918   -0.8296 H   0  0  0  0  0  0  0  0  0  0  0  0
    1.5666    0.5776    1.7193 H   0  0  0  0  0  0  0  0  0  0  0  0
    3.4788   -0.0213   -1.4300 H   0  0  0  0  0  0  0  0  0  0  0  0
    5.0843   -1.5118   -0.2737 H   0  0  0  0  0  0  0  0  0  0  0  0
    4.2857   -3.5832    0.8309 H   0  0  0  0  0  0  0  0  0  0  0  0
    1.8827   -4.1878    0.7650 H   0  0  0  0  0  0  0  0  0  0  0  0
    0.2603   -2.7139   -0.3874 H   0  0  0  0  0  0  0  0  0  0  0  0
   -2.1448   -1.9323   -0.3266 H   0  0  0  0  0  0  0  0  0  0  0  0
   -3.2825   -1.6575    1.0091 H   0  0  0  0  0  0  0  0  0  0  0  0
   -4.0624   -3.5063   -0.4984 H   0  0  0  0  0  0  0  0  0  0  0  0
   -4.0417   -2.4098   -1.8815 H   0  0  0  0  0  0  0  0  0  0  0  0
   -6.6833   -0.4198   -0.8614 H   0  0  0  0  0  0  0  0  0  0  0  0
   -5.8215   -0.4370    0.6789 H   0  0  0  0  0  0  0  0  0  0  0  0
   -4.8144    1.2486   -0.8537 H   0  0  0  0  0  0  0  0  0  0  0  0
   -4.5288   -0.0011   -2.0783 H   0  0  0  0  0  0  0  0  0  0  0  0
  1  2  2  0
  2  3  1  0
  3  4  1  0
  4  5  1  0
  5  6  2  0
  6  7  1  0
  7  8  2  0
  8  9  1  0
  8 10  1  0
 10 11  1  0
 11 12  1  0
 11 13  1  0
 11 14  1  0
 10 15  2  0
  4 16  1  0
 16 17  2  0
 16 18  2  0
 16 19  1  0
 19 20  2  0
 20 21  1  0
 21 22  2  0
 22 23  1  0
 23 24  2  0
  2 25  1  0
 25 26  1  0
 26 27  1  0
 27 28  1  0
 28 29  1  0
 29 30  1  0
 15  5  1  0
 24 19  1  0
 30 25  1  0
  3 31  1  0
  3 32  1  0
  6 33  1  0
  7 34  1  0
 15 35  1  0
 20 36  1  0
 21 37  1  0
 22 38  1  0
 23 39  1  0
 24 40  1  0
 26 41  1  0
 26 42  1  0
 27 43  1  0
 27 44  1  0
 29 45  1  0
 29 46  1  0
 30 47  1  0
 30 48  1  0
M  END
$$$$
