
     RDKit          3D

 53 54  0  0  0  0  0  0  0  0999 V2000
   -0.5556    2.2767   -0.4165 C   0  0  0  0  0  0  0  0  0  0  0  0
   -0.7458    0.7469   -0.3388 C   0  0  0  0  0  0  0  0  0  0  0  0
   -0.7053    0.3238    1.1421 C   0  0  0  0  0  0  0  0  0  0  0  0
    0.3620    0.0301   -1.1529 C   0  0  0  0  0  0  0  0  0  0  0  0
    1.7103    0.3960   -0.7524 N   0  0  0  0  0  0  0  0  0  0  0  0
    2.4633   -0.3767    0.0929 C   0  0  0  0  0  0  0  0  0  0  0  0
    2.1004   -1.4345    0.5911 O   0  0  0  0  0  0  0  0  0  0  0  0
    3.8341    0.1287    0.3453 C   0  0  0  0  0  0  0  0  0  0  0  0
    4.1096    1.4307    0.5240 C   0  0  0  0  0  0  0  0  0  0  0  0
    5.4505    1.9625    0.8104 C   0  0  0  0  0  0  0  0  0  0  0  0
    5.7673    3.2577    0.3703 C   0  0  0  0  0  0  0  0  0  0  0  0
    7.0188    3.8161    0.6422 C   0  0  0  0  0  0  0  0  0  0  0  0
    7.9524    3.0844    1.3643 C   0  0  0  0  0  0  0  0  0  0  0  0
    9.1515    3.6199    1.6267 F   0  0  0  0  0  0  0  0  0  0  0  0
    7.6562    1.8079    1.8242 C   0  0  0  0  0  0  0  0  0  0  0  0
    6.4042    1.2488    1.5529 C   0  0  0  0  0  0  0  0  0  0  0  0
   -2.1380    0.4190   -0.9399 C   0  0  0  0  0  0  0  0  0  0  0  0
   -2.4787   -0.9881   -0.9092 N   0  0  0  0  0  0  0  0  0  0  0  0
   -2.3498   -1.8027   -2.0012 C   0  0  0  0  0  0  0  0  0  0  0  0
   -1.9056   -1.4452   -3.0856 O   0  0  0  0  0  0  0  0  0  0  0  0
   -2.7001   -3.2261   -1.7733 C   0  0  0  0  0  0  0  0  0  0  0  0
   -3.7508   -3.7226   -1.1000 C   0  0  0  0  0  0  0  0  0  0  0  0
   -4.8323   -2.9691   -0.4580 C   0  0  0  0  0  0  0  0  0  0  0  0
   -5.5916   -2.0301   -1.1711 C   0  0  0  0  0  0  0  0  0  0  0  0
   -6.6244   -1.3342   -0.5397 C   0  0  0  0  0  0  0  0  0  0  0  0
   -6.9035   -1.5874    0.7977 C   0  0  0  0  0  0  0  0  0  0  0  0
   -7.8943   -0.9200    1.4030 F   0  0  0  0  0  0  0  0  0  0  0  0
   -6.1714   -2.5256    1.5160 C   0  0  0  0  0  0  0  0  0  0  0  0
   -5.1370   -3.2216    0.8868 C   0  0  0  0  0  0  0  0  0  0  0  0
   -1.3676    2.8014    0.1000 H   0  0  0  0  0  0  0  0  0  0  0  0
    0.3836    2.5936    0.0498 H   0  0  0  0  0  0  0  0  0  0  0  0
   -0.5457    2.6204   -1.4571 H   0  0  0  0  0  0  0  0  0  0  0  0
   -0.7532   -0.7650    1.2505 H   0  0  0  0  0  0  0  0  0  0  0  0
   -1.5484    0.7518    1.6962 H   0  0  0  0  0  0  0  0  0  0  0  0
    0.2115    0.6667    1.6341 H   0  0  0  0  0  0  0  0  0  0  0  0
    0.2604   -1.0578   -1.0730 H   0  0  0  0  0  0  0  0  0  0  0  0
    0.2793    0.2917   -2.2146 H   0  0  0  0  0  0  0  0  0  0  0  0
    2.1405    1.1844   -1.2150 H   0  0  0  0  0  0  0  0  0  0  0  0
    4.5810   -0.6518    0.4367 H   0  0  0  0  0  0  0  0  0  0  0  0
    3.3168    2.1734    0.4701 H   0  0  0  0  0  0  0  0  0  0  0  0
    5.0452    3.8432   -0.1953 H   0  0  0  0  0  0  0  0  0  0  0  0
    7.2687    4.8146    0.2967 H   0  0  0  0  0  0  0  0  0  0  0  0
    8.3968    1.2569    2.3951 H   0  0  0  0  0  0  0  0  0  0  0  0
    6.1841    0.2566    1.9405 H   0  0  0  0  0  0  0  0  0  0  0  0
   -2.9244    0.9343   -0.3753 H   0  0  0  0  0  0  0  0  0  0  0  0
   -2.1977    0.7796   -1.9740 H   0  0  0  0  0  0  0  0  0  0  0  0
   -2.7865   -1.3904   -0.0330 H   0  0  0  0  0  0  0  0  0  0  0  0
   -2.0135   -3.9102   -2.2654 H   0  0  0  0  0  0  0  0  0  0  0  0
   -3.8488   -4.8047   -1.0261 H   0  0  0  0  0  0  0  0  0  0  0  0
   -5.3846   -1.8326   -2.2214 H   0  0  0  0  0  0  0  0  0  0  0  0
   -7.2124   -0.6018   -1.0838 H   0  0  0  0  0  0  0  0  0  0  0  0
   -6.4118   -2.7111    2.5582 H   0  0  0  0  0  0  0  0  0  0  0  0
   -4.5698   -3.9563    1.4548 H   0  0  0  0  0  0  0  0  0  0  0  0
  1  2  1  0
  2  3  1  0
  2  4  1  0
  4  5  1  0
  5  6  1  0
  6  7  2  0
  6  8  1  0
  8  9  2  3
  9 10  1  0
 10 11  2  0
 11 12  1  0
 12 13  2  0
 13 14  1  0
 13 15  1  0
 15 16  2  0
  2 17  1  0
 17 18  1  0
 18 19  1  0
 19 20  2  0
 19 21  1  0
 21 22  2  3
 22 23  1  0
 23 24  2  0
 24 25  1  0
 25 26  2  0
 26 27  1  0
 26 28  1  0
 28 29  2  0
 16 10  1  0
 29 23  1  0
  1 30  1  0
  1 31  1  0
  1 32  1  0
  3 33  1  0
  3 34  1  0
  3 35  1  0
  4 36  1  0
  4 37  1  0
  5 38  1  0
  8 39  1  0
  9 40  1  0
 11 41  1  0
 12 42  1  0
 15 43  1  0
 16 44  1  0
 17 45  1  0
 17 46  1  0
 18 47  1  0
 21 48  1  0
 22 49  1  0
 24 50  1  0
 25 51  1  0
 28 52  1  0
 29 53  1  0
M  END
$$$$
