
     RDKit          3D

 48 50  0  0  0  0  0  0  0  0999 V2000
    7.8364   -0.1825    2.2548 C   0  0  0  0  0  0  0  0  0  0  0  0
    7.7618   -0.3178    0.7419 C   0  0  0  0  0  0  0  0  0  0  0  0
    6.5649    0.4035    0.1246 C   0  0  0  0  0  0  0  0  0  0  0  0
    5.2158   -0.1795    0.5411 C   0  0  0  0  0  0  0  0  0  0  0  0
    4.1997    0.5204   -0.1789 O   0  0  0  0  0  0  0  0  0  0  0  0
    2.9072    0.1276    0.0272 C   0  0  0  0  0  0  0  0  0  0  0  0
    1.9580    0.8175   -0.7253 C   0  0  0  0  0  0  0  0  0  0  0  0
    0.5953    0.5164   -0.6123 C   0  0  0  0  0  0  0  0  0  0  0  0
    0.1487   -0.4938    0.2431 C   0  0  0  0  0  0  0  0  0  0  0  0
   -1.2122   -0.8068    0.4352 N   0  0  0  0  0  0  0  0  0  0  0  0
   -2.2592   -0.5667   -0.4159 C   0  0  0  0  0  0  0  0  0  0  0  0
   -2.1929   -0.0935   -1.6130 N   0  0  0  0  0  0  0  0  0  0  0  0
   -3.3407   -0.0072   -2.3321 C   0  0  0  0  0  0  0  0  0  0  0  0
   -3.1995    0.2454   -3.6562 N   0  0  0  0  0  0  0  0  0  0  0  0
   -4.5300   -0.1113   -1.8518 N   0  0  0  0  0  0  0  0  0  0  0  0
   -4.6175   -0.3544   -0.4240 C   0  0  0  0  0  0  0  0  0  0  0  0
   -5.0383    0.9420    0.2815 C   0  0  0  0  0  0  0  0  0  0  0  0
   -6.5361    1.0663    0.0129 C   0  0  0  0  0  0  0  0  0  0  0  0
   -7.0407   -0.3527   -0.2431 C   0  0  0  0  0  0  0  0  0  0  0  0
   -5.8186   -1.2647   -0.1511 C   0  0  0  0  0  0  0  0  0  0  0  0
   -3.4345   -0.9118    0.1733 N   0  0  0  0  0  0  0  0  0  0  0  0
    1.1124   -1.1619    1.0158 C   0  0  0  0  0  0  0  0  0  0  0  0
    2.4780   -0.8636    0.9050 C   0  0  0  0  0  0  0  0  0  0  0  0
    7.8307    0.8697    2.5562 H   0  0  0  0  0  0  0  0  0  0  0  0
    8.7604   -0.6365    2.6272 H   0  0  0  0  0  0  0  0  0  0  0  0
    6.9990   -0.6880    2.7445 H   0  0  0  0  0  0  0  0  0  0  0  0
    8.6795    0.0979    0.3090 H   0  0  0  0  0  0  0  0  0  0  0  0
    7.7372   -1.3799    0.4717 H   0  0  0  0  0  0  0  0  0  0  0  0
    6.5951    1.4710    0.3767 H   0  0  0  0  0  0  0  0  0  0  0  0
    6.6476    0.3583   -0.9690 H   0  0  0  0  0  0  0  0  0  0  0  0
    5.0653   -0.0395    1.6172 H   0  0  0  0  0  0  0  0  0  0  0  0
    5.1868   -1.2467    0.2910 H   0  0  0  0  0  0  0  0  0  0  0  0
    2.2763    1.6031   -1.4060 H   0  0  0  0  0  0  0  0  0  0  0  0
   -0.1073    1.0972   -1.2025 H   0  0  0  0  0  0  0  0  0  0  0  0
   -1.3502   -1.6291    1.0057 H   0  0  0  0  0  0  0  0  0  0  0  0
   -2.3262    0.7095   -3.8630 H   0  0  0  0  0  0  0  0  0  0  0  0
   -4.0199    0.6824   -4.0511 H   0  0  0  0  0  0  0  0  0  0  0  0
   -4.8736    0.8725    1.3646 H   0  0  0  0  0  0  0  0  0  0  0  0
   -4.4916    1.8218   -0.0754 H   0  0  0  0  0  0  0  0  0  0  0  0
   -6.7150    1.6896   -0.8710 H   0  0  0  0  0  0  0  0  0  0  0  0
   -7.0541    1.5373    0.8545 H   0  0  0  0  0  0  0  0  0  0  0  0
   -7.4912   -0.4139   -1.2404 H   0  0  0  0  0  0  0  0  0  0  0  0
   -7.8085   -0.6467    0.4799 H   0  0  0  0  0  0  0  0  0  0  0  0
   -5.8880   -2.1023   -0.8540 H   0  0  0  0  0  0  0  0  0  0  0  0
   -5.7654   -1.6908    0.8596 H   0  0  0  0  0  0  0  0  0  0  0  0
   -3.4288   -0.8517    1.1825 H   0  0  0  0  0  0  0  0  0  0  0  0
    0.8111   -1.9361    1.7173 H   0  0  0  0  0  0  0  0  0  0  0  0
    3.1731   -1.4224    1.5220 H   0  0  0  0  0  0  0  0  0  0  0  0
  1  2  1  0
  2  3  1  0
  3  4  1  0
  4  5  1  0
  5  6  1  0
  6  7  2  0
  7  8  1  0
  8  9  2  0
  9 10  1  0
 10 11  1  0
 11 12  2  0
 12 13  1  0
 13 14  1  0
 13 15  2  0
 15 16  1  0
 16 17  1  0
 17 18  1  0
 18 19  1  0
 19 20  1  0
 16 21  1  0
  9 22  1  0
 22 23  2  0
 23  6  1  0
 21 11  1  0
 20 16  1  0
  1 24  1  0
  1 25  1  0
  1 26  1  0
  2 27  1  0
  2 28  1  0
  3 29  1  0
  3 30  1  0
  4 31  1  0
  4 32  1  0
  7 33  1  0
  8 34  1  0
 10 35  1  0
 14 36  1  0
 14 37  1  0
 17 38  1  0
 17 39  1  0
 18 40  1  0
 18 41  1  0
 19 42  1  0
 19 43  1  0
 20 44  1  0
 20 45  1  0
 21 46  1  0
 22 47  1  0
 23 48  1  0
M  END
$$$$
