
     RDKit          3D

 34 36  0  0  0  0  0  0  0  0999 V2000
   -2.2815   -2.9777   -2.4586 O   0  0  0  0  0  0  0  0  0  0  0  0
   -2.1006   -1.9936   -1.7519 C   0  0  0  0  0  0  0  0  0  0  0  0
   -3.1738   -1.2221   -1.3201 O   0  0  0  0  0  0  0  0  0  0  0  0
   -2.9845   -0.0875   -0.5073 C   0  0  0  0  0  0  0  0  0  0  0  0
   -4.1420    0.6018   -0.1414 C   0  0  0  0  0  0  0  0  0  0  0  0
   -4.0358    1.7331    0.6607 C   0  0  0  0  0  0  0  0  0  0  0  0
   -2.7803    2.1614    1.0866 C   0  0  0  0  0  0  0  0  0  0  0  0
   -1.6289    1.4586    0.7107 C   0  0  0  0  0  0  0  0  0  0  0  0
   -1.7101    0.3154   -0.0973 C   0  0  0  0  0  0  0  0  0  0  0  0
   -0.5294   -0.4693   -0.5276 C   0  0  0  0  0  0  0  0  0  0  0  0
    0.7379   -0.0517   -0.1081 N   0  0  0  0  0  0  0  0  0  0  0  0
    1.4774    1.0035   -0.8167 C   0  0  0  0  0  0  0  0  0  0  0  0
    2.9412    0.5981   -0.9712 C   0  0  0  0  0  0  0  0  0  0  0  0
    3.5621    0.2340    0.3756 C   0  0  0  0  0  0  0  0  0  0  0  0
    2.7349   -0.8380    1.0817 C   0  0  0  0  0  0  0  0  0  0  0  0
    1.2735   -0.4158    1.2122 C   0  0  0  0  0  0  0  0  0  0  0  0
   -0.7925   -1.5373   -1.3011 C   0  0  0  0  0  0  0  0  0  0  0  0
    0.3158   -2.3229   -1.7394 N   0  0  0  0  0  4  0  0  0  0  0  0
    0.6645   -3.2640   -1.0113 O   0  0  0  0  0  0  0  0  0  0  0  0
    0.8456   -2.0031   -2.8138 O   0  0  0  0  0  1  0  0  0  0  0  0
   -5.1164    0.2592   -0.4791 H   0  0  0  0  0  0  0  0  0  0  0  0
   -4.9283    2.2804    0.9539 H   0  0  0  0  0  0  0  0  0  0  0  0
   -2.6935    3.0458    1.7141 H   0  0  0  0  0  0  0  0  0  0  0  0
   -0.6688    1.8246    1.0633 H   0  0  0  0  0  0  0  0  0  0  0  0
    1.4033    1.9437   -0.2576 H   0  0  0  0  0  0  0  0  0  0  0  0
    1.0463    1.1793   -1.8096 H   0  0  0  0  0  0  0  0  0  0  0  0
    3.5061    1.4159   -1.4320 H   0  0  0  0  0  0  0  0  0  0  0  0
    3.0140   -0.2642   -1.6454 H   0  0  0  0  0  0  0  0  0  0  0  0
    3.6203    1.1287    1.0074 H   0  0  0  0  0  0  0  0  0  0  0  0
    4.5868   -0.1243    0.2280 H   0  0  0  0  0  0  0  0  0  0  0  0
    3.1537   -1.0370    2.0743 H   0  0  0  0  0  0  0  0  0  0  0  0
    2.7972   -1.7734    0.5119 H   0  0  0  0  0  0  0  0  0  0  0  0
    1.1872    0.4393    1.8930 H   0  0  0  0  0  0  0  0  0  0  0  0
    0.6986   -1.2408    1.6498 H   0  0  0  0  0  0  0  0  0  0  0  0
  1  2  2  0
  2  3  1  0
  3  4  1  0
  4  5  2  0
  5  6  1  0
  6  7  2  0
  7  8  1  0
  8  9  2  0
  9 10  1  0
 10 11  1  0
 11 12  1  0
 12 13  1  0
 13 14  1  0
 14 15  1  0
 15 16  1  0
 10 17  2  0
 17 18  1  0
 18 19  2  0
 18 20  1  0
 17  2  1  0
  9  4  1  0
 16 11  1  0
  5 21  1  0
  6 22  1  0
  7 23  1  0
  8 24  1  0
 12 25  1  0
 12 26  1  0
 13 27  1  0
 13 28  1  0
 14 29  1  0
 14 30  1  0
 15 31  1  0
 15 32  1  0
 16 33  1  0
 16 34  1  0
M  CHG  2  18   1  20  -1
M  END
$$$$
