
     RDKit          3D

 44 46  0  0  0  0  0  0  0  0999 V2000
    5.9390    1.9778   -1.3537 C   0  0  0  0  0  0  0  0  0  0  0  0
    6.3382    0.6765   -0.9435 O   0  0  0  0  0  0  0  0  0  0  0  0
    5.6306    0.2050    0.2026 C   0  0  0  0  0  0  0  0  0  0  0  0
    4.2546   -0.3337   -0.1742 C   0  0  0  0  0  0  0  0  0  0  0  0
    3.5520   -0.9421    1.0405 C   0  0  0  0  0  0  0  0  0  0  0  0
    2.2014   -1.4199    0.7064 N   0  0  0  0  0  0  0  0  0  0  0  0
    1.9665   -2.7320    0.2969 C   0  0  0  0  0  0  0  0  0  0  0  0
    3.0974   -3.9616    0.1380 S   0  0  0  0  0  0  0  0  0  0  0  0
    0.6735   -3.0628   -0.0073 N   0  0  0  0  0  0  0  0  0  0  0  0
   -0.3957   -2.1751    0.0626 C   0  0  0  0  0  0  0  0  0  0  0  0
   -1.6813   -2.6027   -0.2475 C   0  0  0  0  0  0  0  0  0  0  0  0
   -2.7506   -1.6994   -0.1741 C   0  0  0  0  0  0  0  0  0  0  0  0
   -2.5616   -0.3575    0.1958 C   0  0  0  0  0  0  0  0  0  0  0  0
   -3.6081    0.5706    0.2956 N   0  0  0  0  0  0  0  0  0  0  0  0
   -5.0013    0.0740    0.2505 C   0  0  0  0  0  0  0  0  0  0  0  0
   -5.9760    1.2060    0.6110 C   0  0  0  0  0  0  0  0  0  0  0  0
   -5.8164    2.3312   -0.2669 O   0  0  0  0  0  0  0  0  0  0  0  0
   -4.4799    2.8465   -0.1614 C   0  0  0  0  0  0  0  0  0  0  0  0
   -3.4303    1.7877   -0.5387 C   0  0  0  0  0  0  0  0  0  0  0  0
   -1.2510    0.0361    0.5158 C   0  0  0  0  0  0  0  0  0  0  0  0
   -0.1792   -0.8638    0.4437 C   0  0  0  0  0  0  0  0  0  0  0  0
    1.1946   -0.4412    0.7679 C   0  0  0  0  0  0  0  0  0  0  0  0
    1.4012    0.7360    1.0594 O   0  0  0  0  0  0  0  0  0  0  0  0
    4.8999    1.9814   -1.6927 H   0  0  0  0  0  0  0  0  0  0  0  0
    6.5731    2.2802   -2.1917 H   0  0  0  0  0  0  0  0  0  0  0  0
    6.0745    2.6971   -0.5404 H   0  0  0  0  0  0  0  0  0  0  0  0
    5.5628    0.9936    0.9613 H   0  0  0  0  0  0  0  0  0  0  0  0
    6.2321   -0.6049    0.6298 H   0  0  0  0  0  0  0  0  0  0  0  0
    4.3581   -1.0757   -0.9751 H   0  0  0  0  0  0  0  0  0  0  0  0
    3.6406    0.4683   -0.5992 H   0  0  0  0  0  0  0  0  0  0  0  0
    3.4754   -0.1886    1.8344 H   0  0  0  0  0  0  0  0  0  0  0  0
    4.1523   -1.7559    1.4587 H   0  0  0  0  0  0  0  0  0  0  0  0
    0.5110   -4.0216   -0.2950 H   0  0  0  0  0  0  0  0  0  0  0  0
   -1.8744   -3.6290   -0.5469 H   0  0  0  0  0  0  0  0  0  0  0  0
   -3.7371   -2.0743   -0.4319 H   0  0  0  0  0  0  0  0  0  0  0  0
   -5.1441   -0.7455    0.9643 H   0  0  0  0  0  0  0  0  0  0  0  0
   -5.2310   -0.2851   -0.7606 H   0  0  0  0  0  0  0  0  0  0  0  0
   -7.0073    0.8528    0.5126 H   0  0  0  0  0  0  0  0  0  0  0  0
   -5.8326    1.5366    1.6467 H   0  0  0  0  0  0  0  0  0  0  0  0
   -4.3188    3.2120    0.8600 H   0  0  0  0  0  0  0  0  0  0  0  0
   -4.4015    3.7032   -0.8382 H   0  0  0  0  0  0  0  0  0  0  0  0
   -3.5535    1.5134   -1.5943 H   0  0  0  0  0  0  0  0  0  0  0  0
   -2.4388    2.2352   -0.4157 H   0  0  0  0  0  0  0  0  0  0  0  0
   -1.0582    1.0514    0.8557 H   0  0  0  0  0  0  0  0  0  0  0  0
  1  2  1  0
  2  3  1  0
  3  4  1  0
  4  5  1  0
  5  6  1  0
  6  7  1  0
  7  8  2  0
  7  9  1  0
  9 10  1  0
 10 11  2  0
 11 12  1  0
 12 13  2  0
 13 14  1  0
 14 15  1  0
 15 16  1  0
 16 17  1  0
 17 18  1  0
 18 19  1  0
 13 20  1  0
 20 21  2  0
 21 22  1  0
 22 23  2  0
 22  6  1  0
 21 10  1  0
 19 14  1  0
  1 24  1  0
  1 25  1  0
  1 26  1  0
  3 27  1  0
  3 28  1  0
  4 29  1  0
  4 30  1  0
  5 31  1  0
  5 32  1  0
  9 33  1  0
 11 34  1  0
 12 35  1  0
 15 36  1  0
 15 37  1  0
 16 38  1  0
 16 39  1  0
 18 40  1  0
 18 41  1  0
 19 42  1  0
 19 43  1  0
 20 44  1  0
M  END
$$$$
