
     RDKit          3D

 46 48  0  0  0  0  0  0  0  0999 V2000
    4.3789    3.6644   -1.6178 C   0  0  0  0  0  0  0  0  0  0  0  0
    5.1077    2.4871   -1.0468 C   0  0  0  0  0  0  0  0  0  0  0  0
    6.2513    2.1701   -1.3395 O   0  0  0  0  0  0  0  0  0  0  0  0
    4.3073    1.8252   -0.1652 O   0  0  0  0  0  0  0  0  0  0  0  0
    4.9287    0.6905    0.4519 C   0  0  0  0  0  0  0  0  0  0  0  0
    3.9435    0.0418    1.4178 C   0  0  0  0  0  0  0  0  0  0  0  0
    2.7051   -0.4919    0.6951 C   0  0  0  0  0  0  0  0  0  0  0  0
    1.8221   -1.1483    1.6610 N   0  0  0  0  0  0  0  0  0  0  0  0
    0.6474   -1.8051    1.2458 C   0  0  0  0  0  0  0  0  0  0  0  0
    0.0512   -1.5182   -0.0185 C   0  0  0  0  0  0  0  0  0  0  0  0
   -1.1635   -2.0809   -0.4856 C   0  0  0  0  0  0  0  0  0  0  0  0
   -1.8455   -1.7097   -2.0701 S   0  0  0  0  0  0  0  0  0  0  0  0
   -2.9548   -0.3864   -1.6261 C   0  0  0  0  0  0  0  0  0  0  0  0
   -2.5142    0.9396   -1.6504 C   0  0  0  0  0  0  0  0  0  0  0  0
   -3.3811    1.9767   -1.2954 C   0  0  0  0  0  0  0  0  0  0  0  0
   -4.7031    1.7013   -0.9265 C   0  0  0  0  0  0  0  0  0  0  0  0
   -5.6241    2.8110   -0.5126 C   0  0  0  0  0  0  0  0  0  0  0  0
   -5.1386    0.3714   -0.8980 C   0  0  0  0  0  0  0  0  0  0  0  0
   -4.2721   -0.6654   -1.2537 C   0  0  0  0  0  0  0  0  0  0  0  0
   -1.8025   -2.9790    0.3986 C   0  0  0  0  0  0  0  0  0  0  0  0
   -2.9309   -3.6892    0.2577 N   0  0  0  0  0  0  0  0  0  0  0  0
   -3.0877   -4.4011    1.4293 O   0  0  0  0  0  0  0  0  0  0  0  0
   -2.0587   -4.1550    2.3158 N   0  0  0  0  0  0  0  0  0  0  0  0
   -1.2496   -3.2704    1.7160 C   0  0  0  0  0  0  0  0  0  0  0  0
   -0.0520   -2.6622    2.1365 C   0  0  0  0  0  0  0  0  0  0  0  0
    0.4292   -2.9674    3.4547 N   0  0  0  0  0  4  0  0  0  0  0  0
   -0.3447   -2.8057    4.4063 O   0  0  0  0  0  0  0  0  0  0  0  0
    1.6107   -3.3364    3.5460 O   0  0  0  0  0  1  0  0  0  0  0  0
    4.0915    4.3477   -0.8146 H   0  0  0  0  0  0  0  0  0  0  0  0
    5.0376    4.1980   -2.3090 H   0  0  0  0  0  0  0  0  0  0  0  0
    3.4980    3.3237   -2.1674 H   0  0  0  0  0  0  0  0  0  0  0  0
    5.2330   -0.0293   -0.3171 H   0  0  0  0  0  0  0  0  0  0  0  0
    5.8137    1.0212    1.0080 H   0  0  0  0  0  0  0  0  0  0  0  0
    4.4468   -0.7736    1.9512 H   0  0  0  0  0  0  0  0  0  0  0  0
    3.6277    0.7765    2.1690 H   0  0  0  0  0  0  0  0  0  0  0  0
    2.1809    0.3431    0.2173 H   0  0  0  0  0  0  0  0  0  0  0  0
    3.0100   -1.2071   -0.0782 H   0  0  0  0  0  0  0  0  0  0  0  0
    2.3474   -1.7003    2.3493 H   0  0  0  0  0  0  0  0  0  0  0  0
    0.5450   -0.8183   -0.6921 H   0  0  0  0  0  0  0  0  0  0  0  0
   -1.4955    1.1790   -1.9443 H   0  0  0  0  0  0  0  0  0  0  0  0
   -3.0187    3.0024   -1.3118 H   0  0  0  0  0  0  0  0  0  0  0  0
   -5.3820    3.7378   -1.0434 H   0  0  0  0  0  0  0  0  0  0  0  0
   -5.5377    2.9867    0.5643 H   0  0  0  0  0  0  0  0  0  0  0  0
   -6.6646    2.5639   -0.7489 H   0  0  0  0  0  0  0  0  0  0  0  0
   -6.1576    0.1321   -0.6005 H   0  0  0  0  0  0  0  0  0  0  0  0
   -4.6354   -1.6908   -1.2320 H   0  0  0  0  0  0  0  0  0  0  0  0
  1  2  1  0
  2  3  2  0
  2  4  1  0
  4  5  1  0
  5  6  1  0
  6  7  1  0
  7  8  1  0
  8  9  1  0
  9 10  1  0
 10 11  2  0
 11 12  1  0
 12 13  1  0
 13 14  2  0
 14 15  1  0
 15 16  2  0
 16 17  1  0
 16 18  1  0
 18 19  2  0
 11 20  1  0
 20 21  2  0
 21 22  1  0
 22 23  1  0
 23 24  2  0
 24 25  1  0
 25 26  1  0
 26 27  2  0
 26 28  1  0
 25  9  2  0
 19 13  1  0
 24 20  1  0
  1 29  1  0
  1 30  1  0
  1 31  1  0
  5 32  1  0
  5 33  1  0
  6 34  1  0
  6 35  1  0
  7 36  1  0
  7 37  1  0
  8 38  1  0
 10 39  1  0
 14 40  1  0
 15 41  1  0
 17 42  1  0
 17 43  1  0
 17 44  1  0
 18 45  1  0
 19 46  1  0
M  CHG  2  26   1  28  -1
M  END
$$$$
