
     RDKit          3D

 40 41  0  0  0  0  0  0  0  0999 V2000
   -3.6740   -1.4790    2.6057 C   0  0  0  0  0  0  0  0  0  0  0  0
   -4.0239   -0.2757    1.8095 C   0  0  0  0  0  0  0  0  0  0  0  0
   -5.1840    0.3515    2.0246 N   0  0  0  0  0  0  0  0  0  0  0  0
   -5.1712    1.3784    1.1586 N   0  0  0  0  0  0  0  0  0  0  0  0
   -6.2994    2.2807    1.1324 C   0  0  0  0  0  0  0  0  0  0  0  0
   -4.0397    1.4304    0.3848 C   0  0  0  0  0  0  0  0  0  0  0  0
   -3.7926    2.4721   -0.6467 C   0  0  0  0  0  0  0  0  0  0  0  0
   -3.2615    0.3524    0.7865 C   0  0  0  0  0  0  0  0  0  0  0  0
   -1.9627   -0.0612    0.2939 C   0  0  0  0  0  0  0  0  0  0  0  0
   -1.3815    0.6185   -0.6426 N   0  0  0  0  0  0  0  0  0  0  0  0
   -0.1356    0.2282   -1.0662 N   0  0  0  0  0  0  0  0  0  0  0  0
    0.8502   -0.3309   -0.2577 C   0  0  0  0  0  0  0  0  0  0  0  0
    0.7147   -0.6724    0.9130 O   0  0  0  0  0  0  0  0  0  0  0  0
    2.1648   -0.4636   -0.9910 C   0  0  0  0  0  0  0  0  0  0  0  0
    3.1883   -1.1935   -0.1331 C   0  0  0  0  0  0  0  0  0  0  0  0
    4.4821   -1.2782   -0.7865 N   0  0  0  0  0  0  0  0  0  0  0  0
    5.6545   -0.7254   -0.3585 C   0  0  0  0  0  0  0  0  0  0  0  0
    6.6006   -1.0837   -1.2976 C   0  0  0  0  0  0  0  0  0  0  0  0
    7.9894   -0.7504   -1.2970 N   0  0  0  0  0  4  0  0  0  0  0  0
    8.4037   -0.0595   -0.3577 O   0  0  0  0  0  0  0  0  0  0  0  0
    8.6653   -1.1779   -2.2408 O   0  0  0  0  0  1  0  0  0  0  0  0
    5.8998   -1.8439   -2.2493 C   0  0  0  0  0  0  0  0  0  0  0  0
    4.6022   -1.9603   -1.9441 N   0  0  0  0  0  0  0  0  0  0  0  0
   -2.7390   -1.3164    3.1514 H   0  0  0  0  0  0  0  0  0  0  0  0
   -3.5463   -2.3458    1.9495 H   0  0  0  0  0  0  0  0  0  0  0  0
   -4.4531   -1.7205    3.3363 H   0  0  0  0  0  0  0  0  0  0  0  0
   -7.0371    1.9677    1.8761 H   0  0  0  0  0  0  0  0  0  0  0  0
   -5.9429    3.2864    1.3681 H   0  0  0  0  0  0  0  0  0  0  0  0
   -6.7446    2.2477    0.1350 H   0  0  0  0  0  0  0  0  0  0  0  0
   -2.8836    3.0340   -0.4086 H   0  0  0  0  0  0  0  0  0  0  0  0
   -3.6673    2.0095   -1.6311 H   0  0  0  0  0  0  0  0  0  0  0  0
   -4.6113    3.1926   -0.7259 H   0  0  0  0  0  0  0  0  0  0  0  0
   -1.5441   -0.9797    0.7352 H   0  0  0  0  0  0  0  0  0  0  0  0
    0.1574    0.6987   -1.9186 H   0  0  0  0  0  0  0  0  0  0  0  0
    1.9907   -1.0056   -1.9282 H   0  0  0  0  0  0  0  0  0  0  0  0
    2.5259    0.5410   -1.2420 H   0  0  0  0  0  0  0  0  0  0  0  0
    2.8708   -2.2209    0.0809 H   0  0  0  0  0  0  0  0  0  0  0  0
    3.3351   -0.6841    0.8266 H   0  0  0  0  0  0  0  0  0  0  0  0
    5.7245   -0.1456    0.5523 H   0  0  0  0  0  0  0  0  0  0  0  0
    6.2752   -2.3158   -3.1494 H   0  0  0  0  0  0  0  0  0  0  0  0
  1  2  1  0
  2  3  2  0
  3  4  1  0
  4  5  1  0
  4  6  1  0
  6  7  1  0
  6  8  2  0
  8  9  1  0
  9 10  2  3
 10 11  1  0
 11 12  1  0
 12 13  2  0
 12 14  1  0
 14 15  1  0
 15 16  1  0
 16 17  1  0
 17 18  2  0
 18 19  1  0
 19 20  2  0
 19 21  1  0
 18 22  1  0
 22 23  2  0
  8  2  1  0
 23 16  1  0
  1 24  1  0
  1 25  1  0
  1 26  1  0
  5 27  1  0
  5 28  1  0
  5 29  1  0
  7 30  1  0
  7 31  1  0
  7 32  1  0
  9 33  1  0
 11 34  1  0
 14 35  1  0
 14 36  1  0
 15 37  1  0
 15 38  1  0
 17 39  1  0
 22 40  1  0
M  CHG  2  19   1  21  -1
M  END
$$$$
