
     RDKit          3D

 47 49  0  0  0  0  0  0  0  0999 V2000
    3.8023    0.3366   -4.6073 C   0  0  0  0  0  0  0  0  0  0  0  0
    4.8276   -0.1953   -3.7761 O   0  0  0  0  0  0  0  0  0  0  0  0
    4.6812   -0.0137   -2.4272 C   0  0  0  0  0  0  0  0  0  0  0  0
    5.7883   -0.3927   -1.6665 C   0  0  0  0  0  0  0  0  0  0  0  0
    5.7631   -0.2781   -0.2788 C   0  0  0  0  0  0  0  0  0  0  0  0
    4.6271    0.2259    0.3543 C   0  0  0  0  0  0  0  0  0  0  0  0
    3.5160    0.6320   -0.3949 C   0  0  0  0  0  0  0  0  0  0  0  0
    2.3904    1.0959    0.3226 N   0  0  0  0  0  0  0  0  0  0  0  0
    1.3341    1.9125   -0.0655 C   0  0  0  0  0  0  0  0  0  0  0  0
    1.3966    3.0188   -1.3314 S   0  0  0  0  0  0  0  0  0  0  0  0
    0.2196    1.7668    0.7854 N   0  0  0  0  0  0  0  0  0  0  0  0
   -0.8943    2.7237    0.8305 C   0  0  0  0  0  0  0  0  0  0  0  0
   -2.1119    2.1585    0.1035 C   0  0  0  0  0  0  0  0  0  0  0  0
   -2.4538    0.7791    0.6165 C   0  0  0  0  0  0  0  0  0  0  0  0
   -3.7428    0.2620    0.4150 C   0  0  0  0  0  0  0  0  0  0  0  0
   -4.0780   -1.0203    0.8629 C   0  0  0  0  0  0  0  0  0  0  0  0
   -5.3159   -1.5960    0.7133 O   0  0  0  0  0  0  0  0  0  0  0  0
   -6.3106   -0.8533    0.0240 C   0  0  0  0  0  0  0  0  0  0  0  0
   -3.1070   -1.8037    1.5157 C   0  0  0  0  0  0  0  0  0  0  0  0
   -3.5161   -3.0471    1.9316 O   0  0  0  0  0  0  0  0  0  0  0  0
   -2.5427   -3.9071    2.5044 C   0  0  0  0  0  0  0  0  0  0  0  0
   -1.8181   -1.2912    1.7056 C   0  0  0  0  0  0  0  0  0  0  0  0
   -1.4757   -0.0067    1.2502 C   0  0  0  0  0  0  0  0  0  0  0  0
   -0.0679    0.5074    1.4872 C   0  0  0  0  0  0  0  0  0  0  0  0
    3.5416    0.4824   -1.7857 C   0  0  0  0  0  0  0  0  0  0  0  0
    4.1118    0.1989   -5.6479 H   0  0  0  0  0  0  0  0  0  0  0  0
    3.6694    1.4107   -4.4393 H   0  0  0  0  0  0  0  0  0  0  0  0
    2.8624   -0.2068   -4.4659 H   0  0  0  0  0  0  0  0  0  0  0  0
    6.6734   -0.7841   -2.1618 H   0  0  0  0  0  0  0  0  0  0  0  0
    6.6276   -0.5800    0.3063 H   0  0  0  0  0  0  0  0  0  0  0  0
    4.6305    0.3098    1.4377 H   0  0  0  0  0  0  0  0  0  0  0  0
    2.4585    1.0004    1.3274 H   0  0  0  0  0  0  0  0  0  0  0  0
   -0.6168    3.6962    0.4164 H   0  0  0  0  0  0  0  0  0  0  0  0
   -1.1267    2.8946    1.8900 H   0  0  0  0  0  0  0  0  0  0  0  0
   -2.9605    2.8369    0.2488 H   0  0  0  0  0  0  0  0  0  0  0  0
   -1.9132    2.0850   -0.9722 H   0  0  0  0  0  0  0  0  0  0  0  0
   -4.4701    0.8850   -0.0957 H   0  0  0  0  0  0  0  0  0  0  0  0
   -7.2168   -1.4654   -0.0168 H   0  0  0  0  0  0  0  0  0  0  0  0
   -6.5573    0.0688    0.5604 H   0  0  0  0  0  0  0  0  0  0  0  0
   -6.0053   -0.6436   -1.0065 H   0  0  0  0  0  0  0  0  0  0  0  0
   -3.0299   -4.8607    2.7299 H   0  0  0  0  0  0  0  0  0  0  0  0
   -1.7279   -4.1088    1.8011 H   0  0  0  0  0  0  0  0  0  0  0  0
   -2.1619   -3.4986    3.4461 H   0  0  0  0  0  0  0  0  0  0  0  0
   -1.0549   -1.8775    2.2075 H   0  0  0  0  0  0  0  0  0  0  0  0
    0.0629    0.7032    2.5579 H   0  0  0  0  0  0  0  0  0  0  0  0
    0.6349   -0.2748    1.1841 H   0  0  0  0  0  0  0  0  0  0  0  0
    2.6569    0.7144   -2.3638 H   0  0  0  0  0  0  0  0  0  0  0  0
  1  2  1  0
  2  3  1  0
  3  4  2  0
  4  5  1  0
  5  6  2  0
  6  7  1  0
  7  8  1  0
  8  9  1  0
  9 10  2  0
  9 11  1  0
 11 12  1  0
 12 13  1  0
 13 14  1  0
 14 15  2  0
 15 16  1  0
 16 17  1  0
 17 18  1  0
 16 19  2  0
 19 20  1  0
 20 21  1  0
 19 22  1  0
 22 23  2  0
 23 24  1  0
  7 25  2  0
 25  3  1  0
 24 11  1  0
 23 14  1  0
  1 26  1  0
  1 27  1  0
  1 28  1  0
  4 29  1  0
  5 30  1  0
  6 31  1  0
  8 32  1  0
 12 33  1  0
 12 34  1  0
 13 35  1  0
 13 36  1  0
 15 37  1  0
 18 38  1  0
 18 39  1  0
 18 40  1  0
 21 41  1  0
 21 42  1  0
 21 43  1  0
 22 44  1  0
 24 45  1  0
 24 46  1  0
 25 47  1  0
M  END
$$$$
