
     RDKit          3D

 55 56  0  0  0  0  0  0  0  0999 V2000
   -4.9335    2.7407   -1.5996 C   0  0  0  0  0  0  0  0  0  0  0  0
   -4.7213    1.5862   -0.6156 C   0  0  0  0  0  0  0  0  0  0  0  0
   -3.3083    1.2937   -0.4453 N   0  0  0  0  0  0  0  0  0  0  0  0
   -2.5923    0.5773   -1.3763 C   0  0  0  0  0  0  0  0  0  0  0  0
   -3.0689    0.1906   -2.4380 O   0  0  0  0  0  0  0  0  0  0  0  0
   -1.1391    0.3783   -0.9982 C   0  0  0  0  0  0  0  0  0  0  0  0
   -0.5773   -0.9417   -1.5104 C   0  0  0  0  0  0  0  0  0  0  0  0
   -1.1521   -2.4088   -0.5738 S   0  0  0  0  0  0  0  0  0  0  0  0
   -0.3324   -2.1699    1.0477 C   0  0  0  0  0  0  0  0  0  0  0  0
    1.1700   -2.4295    1.0224 C   0  0  0  0  0  0  0  0  0  0  0  0
    1.9934   -1.1880    0.7497 C   0  0  0  0  0  0  0  0  0  0  0  0
    1.5476   -0.0481    0.8197 O   0  0  0  0  0  0  0  0  0  0  0  0
    3.3040   -1.4678    0.4427 N   0  0  0  0  0  0  0  0  0  0  0  0
    4.2727   -0.4270    0.1411 C   0  0  0  0  0  0  0  0  0  0  0  0
    4.7647    0.2583    1.4195 C   0  0  0  0  0  0  0  0  0  0  0  0
    5.3919   -1.0196   -0.6977 C   0  0  0  0  0  0  0  0  0  0  0  0
    5.3396   -0.9008   -2.0961 C   0  0  0  0  0  0  0  0  0  0  0  0
    6.3356   -1.4590   -2.8992 C   0  0  0  0  0  0  0  0  0  0  0  0
    7.3944   -2.1506   -2.3171 C   0  0  0  0  0  0  0  0  0  0  0  0
    7.4530   -2.2931   -0.9331 C   0  0  0  0  0  0  0  0  0  0  0  0
    6.4566   -1.7357   -0.1285 C   0  0  0  0  0  0  0  0  0  0  0  0
   -5.3478    1.8327    0.7463 C   0  0  0  0  0  0  0  0  0  0  0  0
   -5.2349    3.0636    1.4121 C   0  0  0  0  0  0  0  0  0  0  0  0
   -5.8003    3.2450    2.6764 C   0  0  0  0  0  0  0  0  0  0  0  0
   -6.4732    2.1972    3.2985 C   0  0  0  0  0  0  0  0  0  0  0  0
   -6.5790    0.9646    2.6595 C   0  0  0  0  0  0  0  0  0  0  0  0
   -6.0183    0.7826    1.3941 C   0  0  0  0  0  0  0  0  0  0  0  0
   -5.9957    2.9971   -1.6823 H   0  0  0  0  0  0  0  0  0  0  0  0
   -4.5768    2.4702   -2.5995 H   0  0  0  0  0  0  0  0  0  0  0  0
   -4.3856    3.6410   -1.3017 H   0  0  0  0  0  0  0  0  0  0  0  0
   -5.1923    0.7004   -1.0622 H   0  0  0  0  0  0  0  0  0  0  0  0
   -2.8656    1.5768    0.4189 H   0  0  0  0  0  0  0  0  0  0  0  0
   -1.0037    0.4869    0.0810 H   0  0  0  0  0  0  0  0  0  0  0  0
   -0.5878    1.2019   -1.4689 H   0  0  0  0  0  0  0  0  0  0  0  0
    0.5154   -0.9247   -1.5018 H   0  0  0  0  0  0  0  0  0  0  0  0
   -0.8675   -1.1019   -2.5547 H   0  0  0  0  0  0  0  0  0  0  0  0
   -0.5941   -1.1961    1.4692 H   0  0  0  0  0  0  0  0  0  0  0  0
   -0.7904   -2.9184    1.7044 H   0  0  0  0  0  0  0  0  0  0  0  0
    1.4770   -2.7766    2.0177 H   0  0  0  0  0  0  0  0  0  0  0  0
    1.4306   -3.2193    0.3089 H   0  0  0  0  0  0  0  0  0  0  0  0
    3.6185   -2.4294    0.4133 H   0  0  0  0  0  0  0  0  0  0  0  0
    3.7604    0.3413   -0.4525 H   0  0  0  0  0  0  0  0  0  0  0  0
    3.9414    0.7745    1.9268 H   0  0  0  0  0  0  0  0  0  0  0  0
    5.1774   -0.4593    2.1374 H   0  0  0  0  0  0  0  0  0  0  0  0
    5.5380    1.0011    1.1951 H   0  0  0  0  0  0  0  0  0  0  0  0
    4.5161   -0.3718   -2.5713 H   0  0  0  0  0  0  0  0  0  0  0  0
    6.2834   -1.3544   -3.9798 H   0  0  0  0  0  0  0  0  0  0  0  0
    8.1702   -2.5837   -2.9427 H   0  0  0  0  0  0  0  0  0  0  0  0
    8.2767   -2.8376   -0.4784 H   0  0  0  0  0  0  0  0  0  0  0  0
    6.5235   -1.8738    0.9476 H   0  0  0  0  0  0  0  0  0  0  0  0
   -4.7012    3.8941    0.9583 H   0  0  0  0  0  0  0  0  0  0  0  0
   -5.7104    4.2047    3.1783 H   0  0  0  0  0  0  0  0  0  0  0  0
   -6.9101    2.3376    4.2833 H   0  0  0  0  0  0  0  0  0  0  0  0
   -7.0932    0.1410    3.1486 H   0  0  0  0  0  0  0  0  0  0  0  0
   -6.0988   -0.1925    0.9161 H   0  0  0  0  0  0  0  0  0  0  0  0
  1  2  1  0
  2  3  1  0
  3  4  1  0
  4  5  2  0
  4  6  1  0
  6  7  1  0
  7  8  1  0
  8  9  1  0
  9 10  1  0
 10 11  1  0
 11 12  2  0
 11 13  1  0
 13 14  1  0
 14 15  1  0
 14 16  1  0
 16 17  2  0
 17 18  1  0
 18 19  2  0
 19 20  1  0
 20 21  2  0
  2 22  1  0
 22 23  2  0
 23 24  1  0
 24 25  2  0
 25 26  1  0
 26 27  2  0
 21 16  1  0
 27 22  1  0
  1 28  1  0
  1 29  1  0
  1 30  1  0
  2 31  1  0
  3 32  1  0
  6 33  1  0
  6 34  1  0
  7 35  1  0
  7 36  1  0
  9 37  1  0
  9 38  1  0
 10 39  1  0
 10 40  1  0
 13 41  1  0
 14 42  1  0
 15 43  1  0
 15 44  1  0
 15 45  1  0
 17 46  1  0
 18 47  1  0
 19 48  1  0
 20 49  1  0
 21 50  1  0
 23 51  1  0
 24 52  1  0
 25 53  1  0
 26 54  1  0
 27 55  1  0
M  END
$$$$
