
     RDKit          3D

 54 56  0  0  0  0  0  0  0  0999 V2000
   -5.9860   -0.5161    0.1613 C   0  0  0  0  0  0  0  0  0  0  0  0
   -4.7658   -1.4158    0.2058 C   0  0  0  0  0  0  0  0  0  0  0  0
   -3.6028   -0.5903    0.0972 O   0  0  0  0  0  0  0  0  0  0  0  0
   -2.4202   -1.2726    0.0836 C   0  0  0  0  0  0  0  0  0  0  0  0
   -2.3424   -2.4891    0.2172 O   0  0  0  0  0  0  0  0  0  0  0  0
   -1.2509   -0.4034   -0.0477 C   0  0  0  0  0  0  0  0  0  0  0  0
   -1.2515    0.7915   -0.7574 C   0  0  0  0  0  0  0  0  0  0  0  0
   -2.2384    1.3772   -1.4901 N   0  0  0  0  0  0  0  0  0  0  0  0
   -2.9472    2.2480   -0.8477 C   0  0  0  0  0  0  0  0  0  0  0  0
   -4.0012    2.9739   -1.3604 N   0  0  0  0  0  0  0  0  0  0  0  0
   -4.5270    2.6310   -2.6745 C   0  0  0  0  0  0  0  0  0  0  0  0
   -4.9155    3.6613   -0.4642 C   0  0  0  0  0  0  0  0  0  0  0  0
    0.2972    1.5339   -0.7356 S   0  0  0  0  0  0  0  0  0  0  0  0
    0.9852    0.3004    0.2191 C   0  0  0  0  0  0  0  0  0  0  0  0
    2.3793    0.3706    0.6083 C   0  0  0  0  0  0  0  0  0  0  0  0
    3.1422    1.3801    0.3110 N   0  0  0  0  0  0  0  0  0  0  0  0
    4.4238    1.2325    0.7664 N   0  0  0  0  0  0  0  0  0  0  0  0
    5.4263    0.9293   -0.2012 C   0  0  0  0  0  0  0  0  0  0  0  0
    5.1256    0.4657   -1.4887 C   0  0  0  0  0  0  0  0  0  0  0  0
    6.1436    0.1153   -2.3805 C   0  0  0  0  0  0  0  0  0  0  0  0
    7.4770    0.2017   -1.9871 C   0  0  0  0  0  0  0  0  0  0  0  0
    7.7926    0.6311   -0.7006 C   0  0  0  0  0  0  0  0  0  0  0  0
    6.7732    0.9830    0.1884 C   0  0  0  0  0  0  0  0  0  0  0  0
    0.0565   -0.6855    0.5097 C   0  0  0  0  0  0  0  0  0  0  0  0
    0.4170   -1.8381    1.3244 C   0  0  0  0  0  0  0  0  0  0  0  0
    0.2597   -1.7881    2.7147 C   0  0  0  0  0  0  0  0  0  0  0  0
    0.6132   -2.8906    3.4960 C   0  0  0  0  0  0  0  0  0  0  0  0
    1.1193   -4.0385    2.8869 C   0  0  0  0  0  0  0  0  0  0  0  0
    1.5548   -5.3946    3.8521 Cl  0  0  0  0  0  0  0  0  0  0  0  0
    1.2752   -4.0954    1.5026 C   0  0  0  0  0  0  0  0  0  0  0  0
    0.9232   -2.9942    0.7187 C   0  0  0  0  0  0  0  0  0  0  0  0
   -5.9555    0.2159    0.9751 H   0  0  0  0  0  0  0  0  0  0  0  0
   -6.0124    0.0505   -0.7753 H   0  0  0  0  0  0  0  0  0  0  0  0
   -6.9059   -1.1014    0.2455 H   0  0  0  0  0  0  0  0  0  0  0  0
   -4.7990   -2.1237   -0.6296 H   0  0  0  0  0  0  0  0  0  0  0  0
   -4.7437   -1.9628    1.1550 H   0  0  0  0  0  0  0  0  0  0  0  0
   -2.7557    2.4841    0.2177 H   0  0  0  0  0  0  0  0  0  0  0  0
   -3.7174    2.5134   -3.4029 H   0  0  0  0  0  0  0  0  0  0  0  0
   -5.0966    1.6975   -2.6264 H   0  0  0  0  0  0  0  0  0  0  0  0
   -5.1865    3.4185   -3.0539 H   0  0  0  0  0  0  0  0  0  0  0  0
   -5.4867    4.4292   -0.9962 H   0  0  0  0  0  0  0  0  0  0  0  0
   -5.6190    2.9499   -0.0197 H   0  0  0  0  0  0  0  0  0  0  0  0
   -4.3702    4.1626    0.3423 H   0  0  0  0  0  0  0  0  0  0  0  0
    2.7917   -0.4799    1.1822 H   0  0  0  0  0  0  0  0  0  0  0  0
    4.7513    2.0482    1.2912 H   0  0  0  0  0  0  0  0  0  0  0  0
    4.0930    0.3895   -1.8178 H   0  0  0  0  0  0  0  0  0  0  0  0
    5.8909   -0.2260   -3.3808 H   0  0  0  0  0  0  0  0  0  0  0  0
    8.2679   -0.0717   -2.6802 H   0  0  0  0  0  0  0  0  0  0  0  0
    8.8310    0.6865   -0.3853 H   0  0  0  0  0  0  0  0  0  0  0  0
    7.0387    1.2955    1.1950 H   0  0  0  0  0  0  0  0  0  0  0  0
   -0.1379   -0.8977    3.1962 H   0  0  0  0  0  0  0  0  0  0  0  0
    0.4889   -2.8500    4.5749 H   0  0  0  0  0  0  0  0  0  0  0  0
    1.6623   -4.9928    1.0275 H   0  0  0  0  0  0  0  0  0  0  0  0
    1.0348   -3.0495   -0.3621 H   0  0  0  0  0  0  0  0  0  0  0  0
  1  2  1  0
  2  3  1  0
  3  4  1  0
  4  5  2  0
  4  6  1  0
  6  7  2  0
  7  8  1  0
  8  9  2  3
  9 10  1  0
 10 11  1  0
 10 12  1  0
  7 13  1  0
 13 14  1  0
 14 15  1  0
 15 16  2  3
 16 17  1  0
 17 18  1  0
 18 19  2  0
 19 20  1  0
 20 21  2  0
 21 22  1  0
 22 23  2  0
 14 24  2  0
 24 25  1  0
 25 26  2  0
 26 27  1  0
 27 28  2  0
 28 29  1  0
 28 30  1  0
 30 31  2  0
 24  6  1  0
 31 25  1  0
 23 18  1  0
  1 32  1  0
  1 33  1  0
  1 34  1  0
  2 35  1  0
  2 36  1  0
  9 37  1  0
 11 38  1  0
 11 39  1  0
 11 40  1  0
 12 41  1  0
 12 42  1  0
 12 43  1  0
 15 44  1  0
 17 45  1  0
 19 46  1  0
 20 47  1  0
 21 48  1  0
 22 49  1  0
 23 50  1  0
 26 51  1  0
 27 52  1  0
 30 53  1  0
 31 54  1  0
M  END
$$$$
