
     RDKit          3D

 37 38  0  0  0  0  0  0  0  0999 V2000
    4.2179    1.5512    0.4161 C   0  0  0  0  0  0  0  0  0  0  0  0
    4.3654    0.0581    0.7134 C   0  0  0  0  0  0  0  0  0  0  0  0
    4.2586   -0.7581   -0.5762 C   0  0  0  0  0  0  0  0  0  0  0  0
    3.4013   -0.4302    1.8113 C   0  0  0  0  0  0  0  0  0  0  0  0
    1.9503   -0.3128    1.4647 C   0  0  0  0  0  0  0  0  0  0  0  0
    1.2903   -1.1539    0.6921 N   0  0  0  0  0  0  0  0  0  0  0  0
   -0.0372   -0.8034    0.5580 N   0  0  0  0  0  0  0  0  0  0  0  0
   -0.3164    0.3009    1.2057 C   0  0  0  0  0  0  0  0  0  0  0  0
   -1.6627    0.8360    1.1997 N   0  0  0  0  0  0  0  0  0  0  0  0
   -1.8654    2.0372    0.0353 S   0  0  0  0  0  6  0  0  0  0  0  0
   -3.1883    2.5909    0.2470 O   0  0  0  0  0  0  0  0  0  0  0  0
   -0.7122    2.9151    0.0624 O   0  0  0  0  0  0  0  0  0  0  0  0
   -1.8501    1.1535   -1.5416 C   0  0  0  0  0  0  0  0  0  0  0  0
   -2.8594    0.0327   -1.5527 C   0  0  0  0  0  0  0  0  0  0  0  0
   -2.4332   -1.3037   -1.5639 C   0  0  0  0  0  0  0  0  0  0  0  0
   -3.3604   -2.3471   -1.5671 C   0  0  0  0  0  0  0  0  0  0  0  0
   -4.7246   -2.0690   -1.5727 C   0  0  0  0  0  0  0  0  0  0  0  0
   -5.1626   -0.7473   -1.5828 C   0  0  0  0  0  0  0  0  0  0  0  0
   -4.2368    0.2973   -1.5793 C   0  0  0  0  0  0  0  0  0  0  0  0
    0.9754    0.9517    2.1090 S   0  0  0  0  0  0  0  0  0  0  0  0
    4.2919    2.1416    1.3354 H   0  0  0  0  0  0  0  0  0  0  0  0
    3.2606    1.7786   -0.0637 H   0  0  0  0  0  0  0  0  0  0  0  0
    5.0124    1.8873   -0.2591 H   0  0  0  0  0  0  0  0  0  0  0  0
    5.3814   -0.0926    1.1033 H   0  0  0  0  0  0  0  0  0  0  0  0
    5.0597   -0.4823   -1.2707 H   0  0  0  0  0  0  0  0  0  0  0  0
    3.3065   -0.5887   -1.0890 H   0  0  0  0  0  0  0  0  0  0  0  0
    4.3523   -1.8293   -0.3694 H   0  0  0  0  0  0  0  0  0  0  0  0
    3.6134    0.1126    2.7414 H   0  0  0  0  0  0  0  0  0  0  0  0
    3.6141   -1.4854    2.0275 H   0  0  0  0  0  0  0  0  0  0  0  0
   -2.3598    0.0995    1.0833 H   0  0  0  0  0  0  0  0  0  0  0  0
   -0.8308    0.7933   -1.7116 H   0  0  0  0  0  0  0  0  0  0  0  0
   -2.0827    1.8838   -2.3238 H   0  0  0  0  0  0  0  0  0  0  0  0
   -1.3723   -1.5517   -1.5720 H   0  0  0  0  0  0  0  0  0  0  0  0
   -3.0156   -3.3785   -1.5702 H   0  0  0  0  0  0  0  0  0  0  0  0
   -5.4463   -2.8819   -1.5777 H   0  0  0  0  0  0  0  0  0  0  0  0
   -6.2275   -0.5276   -1.5960 H   0  0  0  0  0  0  0  0  0  0  0  0
   -4.6073    1.3220   -1.5930 H   0  0  0  0  0  0  0  0  0  0  0  0
  1  2  1  0
  2  3  1  0
  2  4  1  0
  4  5  1  0
  5  6  2  0
  6  7  1  0
  7  8  2  0
  8  9  1  0
  9 10  1  0
 10 11  2  0
 10 12  2  0
 10 13  1  0
 13 14  1  0
 14 15  2  0
 15 16  1  0
 16 17  2  0
 17 18  1  0
 18 19  2  0
  8 20  1  0
 20  5  1  0
 19 14  1  0
  1 21  1  0
  1 22  1  0
  1 23  1  0
  2 24  1  0
  3 25  1  0
  3 26  1  0
  3 27  1  0
  4 28  1  0
  4 29  1  0
  9 30  1  0
 13 31  1  0
 13 32  1  0
 15 33  1  0
 16 34  1  0
 17 35  1  0
 18 36  1  0
 19 37  1  0
M  END
$$$$
