
     RDKit          3D

 46 49  0  0  0  0  0  0  0  0999 V2000
   -6.3089    0.4674    1.3806 C   0  0  0  0  0  0  0  0  0  0  0  0
   -4.9194    0.5759    1.6652 O   0  0  0  0  0  0  0  0  0  0  0  0
   -4.0512    0.3038    0.6422 C   0  0  0  0  0  0  0  0  0  0  0  0
   -4.4080   -0.0494   -0.6575 C   0  0  0  0  0  0  0  0  0  0  0  0
   -3.4193   -0.2915   -1.6170 C   0  0  0  0  0  0  0  0  0  0  0  0
   -2.0666   -0.1953   -1.2750 C   0  0  0  0  0  0  0  0  0  0  0  0
   -1.0189   -0.4298   -2.1370 O   0  0  0  0  0  0  0  0  0  0  0  0
   -1.3477   -0.7724   -3.4811 C   0  0  0  0  0  0  0  0  0  0  0  0
   -1.6892    0.1453    0.0460 C   0  0  0  0  0  0  0  0  0  0  0  0
   -0.3153    0.2344    0.3441 N   0  0  0  0  0  0  0  0  0  0  0  0
    0.4183    0.1656    1.5572 C   0  0  0  0  0  0  0  0  0  0  0  0
   -0.2187    0.1362    2.7555 N   0  0  0  0  0  0  0  0  0  0  0  0
    0.6576    0.0778    3.7940 C   0  0  0  0  0  0  0  0  0  0  0  0
    0.3475    0.0273    5.0903 N   0  0  0  0  0  0  0  0  0  0  0  0
    1.5767   -0.0228    5.7477 O   0  0  0  0  0  0  0  0  0  0  0  0
    2.6526    0.0002    4.8579 N   0  0  0  0  0  0  0  0  0  0  0  0
    2.0899    0.0629    3.6509 C   0  0  0  0  0  0  0  0  0  0  0  0
    2.7446    0.0970    2.4575 N   0  0  0  0  0  0  0  0  0  0  0  0
    1.8673    0.1512    1.4172 C   0  0  0  0  0  0  0  0  0  0  0  0
    2.3839    0.1376    0.0825 N   0  0  0  0  0  0  0  0  0  0  0  0
    3.2616    1.3042   -0.1516 C   0  0  0  0  0  0  0  0  0  0  0  0
    4.2215    1.0518   -1.3235 C   0  0  0  0  0  0  0  0  0  0  0  0
    3.6287    0.0940   -2.3509 C   0  0  0  0  0  0  0  0  0  0  0  0
    3.2470   -1.2476   -1.7126 C   0  0  0  0  0  0  0  0  0  0  0  0
    3.0266   -1.1481   -0.1991 C   0  0  0  0  0  0  0  0  0  0  0  0
   -2.6962    0.4006    0.9827 C   0  0  0  0  0  0  0  0  0  0  0  0
   -6.5769   -0.5629    1.1092 H   0  0  0  0  0  0  0  0  0  0  0  0
   -6.6119    1.1776    0.5991 H   0  0  0  0  0  0  0  0  0  0  0  0
   -6.8570    0.7257    2.2931 H   0  0  0  0  0  0  0  0  0  0  0  0
   -5.4463   -0.1417   -0.9602 H   0  0  0  0  0  0  0  0  0  0  0  0
   -3.7414   -0.5608   -2.6177 H   0  0  0  0  0  0  0  0  0  0  0  0
   -1.8567    0.0606   -3.9815 H   0  0  0  0  0  0  0  0  0  0  0  0
   -0.4102   -0.9689   -4.0137 H   0  0  0  0  0  0  0  0  0  0  0  0
   -1.9459   -1.6928   -3.5230 H   0  0  0  0  0  0  0  0  0  0  0  0
    0.2784   -0.0217   -0.4475 H   0  0  0  0  0  0  0  0  0  0  0  0
    2.6249    2.1675   -0.3844 H   0  0  0  0  0  0  0  0  0  0  0  0
    3.8627    1.5734    0.7288 H   0  0  0  0  0  0  0  0  0  0  0  0
    5.1555    0.6217   -0.9380 H   0  0  0  0  0  0  0  0  0  0  0  0
    4.4913    2.0044   -1.7932 H   0  0  0  0  0  0  0  0  0  0  0  0
    4.3301   -0.0685   -3.1767 H   0  0  0  0  0  0  0  0  0  0  0  0
    2.7333    0.5546   -2.7893 H   0  0  0  0  0  0  0  0  0  0  0  0
    2.3358   -1.6162   -2.1995 H   0  0  0  0  0  0  0  0  0  0  0  0
    4.0244   -1.9957   -1.9146 H   0  0  0  0  0  0  0  0  0  0  0  0
    2.4009   -1.9918    0.1172 H   0  0  0  0  0  0  0  0  0  0  0  0
    3.9883   -1.2336    0.3264 H   0  0  0  0  0  0  0  0  0  0  0  0
   -2.4437    0.6930    1.9992 H   0  0  0  0  0  0  0  0  0  0  0  0
  1  2  1  0
  2  3  1  0
  3  4  2  0
  4  5  1  0
  5  6  2  0
  6  7  1  0
  7  8  1  0
  6  9  1  0
  9 10  1  0
 10 11  1  0
 11 12  2  0
 12 13  1  0
 13 14  2  0
 14 15  1  0
 15 16  1  0
 16 17  2  0
 17 18  1  0
 18 19  2  0
 19 20  1  0
 20 21  1  0
 21 22  1  0
 22 23  1  0
 23 24  1  0
 24 25  1  0
  9 26  2  0
 26  3  1  0
 19 11  1  0
 25 20  1  0
 17 13  1  0
  1 27  1  0
  1 28  1  0
  1 29  1  0
  4 30  1  0
  5 31  1  0
  8 32  1  0
  8 33  1  0
  8 34  1  0
 10 35  1  0
 21 36  1  0
 21 37  1  0
 22 38  1  0
 22 39  1  0
 23 40  1  0
 23 41  1  0
 24 42  1  0
 24 43  1  0
 25 44  1  0
 25 45  1  0
 26 46  1  0
M  END
$$$$
