
     RDKit          3D

 59 60  0  0  0  0  0  0  0  0999 V2000
    5.2360   -2.7491   -1.6317 C   0  0  0  0  0  0  0  0  0  0  0  0
    4.7069   -1.3231   -1.4550 C   0  0  0  0  0  0  0  0  0  0  0  0
    5.6817   -0.3285   -2.0866 C   0  0  0  0  0  0  0  0  0  0  0  0
    4.4647   -1.0399    0.0407 C   0  0  0  0  0  0  0  0  0  0  0  0
    3.8461    0.3256    0.3421 C   0  0  0  0  0  0  0  0  0  0  0  0
    2.5350    0.4658   -0.2547 N   0  0  0  0  0  0  0  0  0  0  0  0
    2.1495    1.5792   -0.9734 C   0  0  0  0  0  0  0  0  0  0  0  0
    2.9330    2.5042   -1.1788 O   0  0  0  0  0  0  0  0  0  0  0  0
    0.7903    1.5841   -1.4741 C   0  0  0  0  0  0  0  0  0  0  0  0
    0.5200    2.4809   -2.4676 O   0  0  0  0  0  0  0  0  0  0  0  0
   -0.7921    2.3665   -2.8711 N   0  0  0  0  0  0  0  0  0  0  0  0
   -1.3348    1.4179   -2.0967 C   0  0  0  0  0  0  0  0  0  0  0  0
   -2.7497    1.0112   -2.3476 C   0  0  0  0  0  0  0  0  0  0  0  0
   -3.9844    1.5102   -1.1050 S   0  0  0  0  0  0  0  0  0  0  0  0
   -3.2907    3.0438   -0.5500 C   0  0  0  0  0  0  0  0  0  0  0  0
   -3.5495    4.2370   -1.2089 C   0  0  0  0  0  0  0  0  0  0  0  0
   -2.9497    5.3982   -0.7309 C   0  0  0  0  0  0  0  0  0  0  0  0
   -2.1211    5.3286    0.3832 C   0  0  0  0  0  0  0  0  0  0  0  0
   -1.9274    4.0941    0.9807 C   0  0  0  0  0  0  0  0  0  0  0  0
   -2.4952    2.9478    0.5431 N   0  0  0  0  0  0  0  0  0  0  0  0
   -0.3783    0.9049   -1.1719 C   0  0  0  0  0  0  0  0  0  0  0  0
   -0.5295   -0.0981   -0.1472 C   0  0  0  0  0  0  0  0  0  0  0  0
    0.2834   -1.0071   -0.0126 O   0  0  0  0  0  0  0  0  0  0  0  0
   -1.6052    0.0855    0.6810 N   0  0  0  0  0  0  0  0  0  0  0  0
   -1.8953   -0.7963    1.7910 C   0  0  0  0  0  0  0  0  0  0  0  0
   -2.6662   -2.0326    1.3291 C   0  0  0  0  0  0  0  0  0  0  0  0
   -3.1303   -2.9321    2.4881 C   0  0  0  0  0  0  0  0  0  0  0  0
   -4.0191   -4.0558    1.9494 C   0  0  0  0  0  0  0  0  0  0  0  0
   -1.9572   -3.5300    3.2660 C   0  0  0  0  0  0  0  0  0  0  0  0
    5.3732   -2.9847   -2.6924 H   0  0  0  0  0  0  0  0  0  0  0  0
    4.5328   -3.4793   -1.2172 H   0  0  0  0  0  0  0  0  0  0  0  0
    6.1997   -2.8812   -1.1277 H   0  0  0  0  0  0  0  0  0  0  0  0
    3.7526   -1.2560   -1.9923 H   0  0  0  0  0  0  0  0  0  0  0  0
    6.6350   -0.3102   -1.5475 H   0  0  0  0  0  0  0  0  0  0  0  0
    5.8884   -0.5963   -3.1283 H   0  0  0  0  0  0  0  0  0  0  0  0
    5.2711    0.6855   -2.0896 H   0  0  0  0  0  0  0  0  0  0  0  0
    5.4131   -1.1202    0.5868 H   0  0  0  0  0  0  0  0  0  0  0  0
    3.8049   -1.8190    0.4450 H   0  0  0  0  0  0  0  0  0  0  0  0
    3.7032    0.4228    1.4240 H   0  0  0  0  0  0  0  0  0  0  0  0
    4.5092    1.1382    0.0317 H   0  0  0  0  0  0  0  0  0  0  0  0
    1.8697   -0.2906   -0.1028 H   0  0  0  0  0  0  0  0  0  0  0  0
   -3.0860    1.4125   -3.3111 H   0  0  0  0  0  0  0  0  0  0  0  0
   -2.7979   -0.0799   -2.4375 H   0  0  0  0  0  0  0  0  0  0  0  0
   -4.1912    4.2705   -2.0827 H   0  0  0  0  0  0  0  0  0  0  0  0
   -3.1210    6.3485   -1.2289 H   0  0  0  0  0  0  0  0  0  0  0  0
   -1.6343    6.2156    0.7740 H   0  0  0  0  0  0  0  0  0  0  0  0
   -1.2870    3.9931    1.8526 H   0  0  0  0  0  0  0  0  0  0  0  0
   -2.1189    0.9676    0.6286 H   0  0  0  0  0  0  0  0  0  0  0  0
   -0.9500   -1.0752    2.2669 H   0  0  0  0  0  0  0  0  0  0  0  0
   -2.4875   -0.2219    2.5109 H   0  0  0  0  0  0  0  0  0  0  0  0
   -2.0498   -2.6126    0.6301 H   0  0  0  0  0  0  0  0  0  0  0  0
   -3.5448   -1.7041    0.7581 H   0  0  0  0  0  0  0  0  0  0  0  0
   -3.7320   -2.3310    3.1815 H   0  0  0  0  0  0  0  0  0  0  0  0
   -4.3865   -4.6873    2.7654 H   0  0  0  0  0  0  0  0  0  0  0  0
   -3.4715   -4.6937    1.2470 H   0  0  0  0  0  0  0  0  0  0  0  0
   -4.8907   -3.6468    1.4275 H   0  0  0  0  0  0  0  0  0  0  0  0
   -1.2875   -4.0909    2.6054 H   0  0  0  0  0  0  0  0  0  0  0  0
   -1.3718   -2.7522    3.7653 H   0  0  0  0  0  0  0  0  0  0  0  0
   -2.3153   -4.2140    4.0430 H   0  0  0  0  0  0  0  0  0  0  0  0
  1  2  1  0
  2  3  1  0
  2  4  1  0
  4  5  1  0
  5  6  1  0
  6  7  1  0
  7  8  2  0
  7  9  1  0
  9 10  1  0
 10 11  1  0
 11 12  2  0
 12 13  1  0
 13 14  1  0
 14 15  1  0
 15 16  2  0
 16 17  1  0
 17 18  2  0
 18 19  1  0
 19 20  2  0
 12 21  1  0
 21 22  1  0
 22 23  2  0
 22 24  1  0
 24 25  1  0
 25 26  1  0
 26 27  1  0
 27 28  1  0
 27 29  1  0
 21  9  2  0
 20 15  1  0
  1 30  1  0
  1 31  1  0
  1 32  1  0
  2 33  1  0
  3 34  1  0
  3 35  1  0
  3 36  1  0
  4 37  1  0
  4 38  1  0
  5 39  1  0
  5 40  1  0
  6 41  1  0
 13 42  1  0
 13 43  1  0
 16 44  1  0
 17 45  1  0
 18 46  1  0
 19 47  1  0
 24 48  1  0
 25 49  1  0
 25 50  1  0
 26 51  1  0
 26 52  1  0
 27 53  1  0
 28 54  1  0
 28 55  1  0
 28 56  1  0
 29 57  1  0
 29 58  1  0
 29 59  1  0
M  END
$$$$
