
     RDKit          3D

 61 66  0  0  0  0  0  0  0  0999 V2000
   -2.1650    4.4964    2.4716 C   0  0  0  0  0  0  0  0  0  0  0  0
   -2.7306    4.5142    1.0477 C   0  0  0  0  0  0  0  0  0  0  0  0
   -3.4758    3.2047    0.7116 C   0  0  0  0  0  0  0  0  0  0  0  0
   -2.5535    1.9756    0.6579 C   0  0  0  0  0  0  0  0  0  0  0  0
   -1.2740    2.2639   -0.0734 C   0  0  0  0  0  0  0  0  0  0  0  0
   -0.8702    3.5587   -0.3458 C   0  0  0  0  0  0  0  0  0  0  0  0
    0.6003    3.6196   -1.1948 S   0  0  0  0  0  0  0  0  0  0  0  0
    0.7286    1.9201   -1.2103 C   0  0  0  0  0  0  0  0  0  0  0  0
    1.7754    1.3324   -1.8084 N   0  0  0  0  0  0  0  0  0  0  0  0
    1.7331   -0.0057   -1.7393 C   0  0  0  0  0  0  0  0  0  0  0  0
    2.8892   -0.7645   -2.3840 C   0  0  0  0  0  0  0  0  0  0  0  0
    3.9908   -1.1360   -1.4640 N   0  0  0  0  0  0  0  0  0  0  0  0
    4.6238    0.0647   -0.8718 C   0  0  0  0  0  0  0  0  0  0  0  0
    6.0576   -0.2222   -0.4014 C   0  0  0  0  0  0  0  0  0  0  0  0
    6.9349   -0.5786   -1.4799 O   0  0  0  0  0  0  0  0  0  0  0  0
    6.2538   -1.2060   -2.5744 C   0  0  0  0  0  0  0  0  0  0  0  0
    4.9991   -1.9791   -2.1392 C   0  0  0  0  0  0  0  0  0  0  0  0
    0.7761   -0.7371   -1.1311 N   0  0  0  0  0  0  0  0  0  0  0  0
   -0.2581   -0.1198   -0.5136 C   0  0  0  0  0  0  0  0  0  0  0  0
   -1.2290   -0.8816    0.1634 N   0  0  0  0  0  0  0  0  0  0  0  0
   -0.8206   -1.0828    1.5627 C   0  0  0  0  0  0  0  0  0  0  0  0
   -2.0154   -1.6263    2.3545 C   0  0  0  0  0  0  0  0  0  0  0  0
   -2.7073   -2.7691    1.6510 C   0  0  0  0  0  0  0  0  0  0  0  0
   -3.6131   -3.5745    2.3544 C   0  0  0  0  0  0  0  0  0  0  0  0
   -4.2861   -4.6099    1.7066 C   0  0  0  0  0  0  0  0  0  0  0  0
   -4.0661   -4.8445    0.3515 C   0  0  0  0  0  0  0  0  0  0  0  0
   -3.1747   -4.0415   -0.3606 C   0  0  0  0  0  0  0  0  0  0  0  0
   -2.4971   -2.9899    0.2753 C   0  0  0  0  0  0  0  0  0  0  0  0
   -1.4965   -2.1619   -0.5123 C   0  0  0  0  0  0  0  0  0  0  0  0
   -0.3205    1.2907   -0.5594 C   0  0  0  0  0  0  0  0  0  0  0  0
   -1.6286    4.8033    0.0045 C   0  0  0  0  0  0  0  0  0  0  0  0
   -1.3881    3.7367    2.6019 H   0  0  0  0  0  0  0  0  0  0  0  0
   -1.7237    5.4674    2.7204 H   0  0  0  0  0  0  0  0  0  0  0  0
   -2.9592    4.2964    3.1988 H   0  0  0  0  0  0  0  0  0  0  0  0
   -3.4552    5.3381    1.0043 H   0  0  0  0  0  0  0  0  0  0  0  0
   -4.2788    3.0257    1.4367 H   0  0  0  0  0  0  0  0  0  0  0  0
   -3.9614    3.3252   -0.2664 H   0  0  0  0  0  0  0  0  0  0  0  0
   -3.0935    1.1539    0.1745 H   0  0  0  0  0  0  0  0  0  0  0  0
   -2.3134    1.6562    1.6786 H   0  0  0  0  0  0  0  0  0  0  0  0
    2.4584   -1.6795   -2.8111 H   0  0  0  0  0  0  0  0  0  0  0  0
    3.2723   -0.1764   -3.2284 H   0  0  0  0  0  0  0  0  0  0  0  0
    4.0267    0.4055   -0.0194 H   0  0  0  0  0  0  0  0  0  0  0  0
    4.6683    0.8787   -1.6069 H   0  0  0  0  0  0  0  0  0  0  0  0
    6.0735   -1.0340    0.3348 H   0  0  0  0  0  0  0  0  0  0  0  0
    6.4797    0.6640    0.0832 H   0  0  0  0  0  0  0  0  0  0  0  0
    6.9653   -1.8857   -3.0545 H   0  0  0  0  0  0  0  0  0  0  0  0
    5.9986   -0.4324   -3.3080 H   0  0  0  0  0  0  0  0  0  0  0  0
    5.3039   -2.7473   -1.4172 H   0  0  0  0  0  0  0  0  0  0  0  0
    4.5734   -2.5166   -2.9947 H   0  0  0  0  0  0  0  0  0  0  0  0
   -0.4947   -0.1446    2.0300 H   0  0  0  0  0  0  0  0  0  0  0  0
    0.0219   -1.7867    1.6208 H   0  0  0  0  0  0  0  0  0  0  0  0
   -2.7514   -0.8252    2.4961 H   0  0  0  0  0  0  0  0  0  0  0  0
   -1.6713   -1.9464    3.3449 H   0  0  0  0  0  0  0  0  0  0  0  0
   -3.7990   -3.3976    3.4111 H   0  0  0  0  0  0  0  0  0  0  0  0
   -4.9834   -5.2339    2.2597 H   0  0  0  0  0  0  0  0  0  0  0  0
   -4.5884   -5.6543   -0.1517 H   0  0  0  0  0  0  0  0  0  0  0  0
   -3.0095   -4.2399   -1.4174 H   0  0  0  0  0  0  0  0  0  0  0  0
   -1.9084   -1.9622   -1.5097 H   0  0  0  0  0  0  0  0  0  0  0  0
   -0.5868   -2.7680   -0.6183 H   0  0  0  0  0  0  0  0  0  0  0  0
   -2.1017    5.1829   -0.9107 H   0  0  0  0  0  0  0  0  0  0  0  0
   -0.9543    5.5869    0.3696 H   0  0  0  0  0  0  0  0  0  0  0  0
  1  2  1  0
  2  3  1  0
  3  4  1  0
  4  5  1  0
  5  6  2  0
  6  7  1  0
  7  8  1  0
  8  9  2  0
  9 10  1  0
 10 11  1  0
 11 12  1  0
 12 13  1  0
 13 14  1  0
 14 15  1  0
 15 16  1  0
 16 17  1  0
 10 18  2  0
 18 19  1  0
 19 20  1  0
 20 21  1  0
 21 22  1  0
 22 23  1  0
 23 24  2  0
 24 25  1  0
 25 26  2  0
 26 27  1  0
 27 28  2  0
 28 29  1  0
 19 30  2  0
  6 31  1  0
 31  2  1  0
 30  5  1  0
 30  8  1  0
 17 12  1  0
 29 20  1  0
 28 23  1  0
  1 32  1  0
  1 33  1  0
  1 34  1  0
  2 35  1  0
  3 36  1  0
  3 37  1  0
  4 38  1  0
  4 39  1  0
 11 40  1  0
 11 41  1  0
 13 42  1  0
 13 43  1  0
 14 44  1  0
 14 45  1  0
 16 46  1  0
 16 47  1  0
 17 48  1  0
 17 49  1  0
 21 50  1  0
 21 51  1  0
 22 52  1  0
 22 53  1  0
 24 54  1  0
 25 55  1  0
 26 56  1  0
 27 57  1  0
 29 58  1  0
 29 59  1  0
 31 60  1  0
 31 61  1  0
M  END
$$$$
