
     RDKit          3D

 52 54  0  0  0  0  0  0  0  0999 V2000
   -3.2590    2.2783   -2.8466 C   0  0  0  0  0  0  0  0  0  0  0  0
   -3.9260    2.0723   -1.4735 C   0  0  0  0  0  0  0  0  0  0  0  0
   -5.0923    3.0753   -1.3653 C   0  0  0  0  0  0  0  0  0  0  0  0
   -2.9234    2.3660   -0.3209 C   0  0  0  0  0  0  0  0  0  0  0  0
   -1.9502    1.2389   -0.1256 C   0  0  0  0  0  0  0  0  0  0  0  0
   -2.2865   -0.0325   -0.5621 C   0  0  0  0  0  0  0  0  0  0  0  0
   -1.0104   -1.1342   -0.3187 S   0  0  0  0  0  0  0  0  0  0  0  0
   -0.0066    0.0477    0.3555 C   0  0  0  0  0  0  0  0  0  0  0  0
    1.2960   -0.2356    0.7427 N   0  0  0  0  0  0  0  0  0  0  0  0
    1.9628   -1.4523    0.6677 C   0  0  0  0  0  0  0  0  0  0  0  0
    1.5056   -2.5209    0.2788 O   0  0  0  0  0  0  0  0  0  0  0  0
    3.4139   -1.3079    1.1536 C   0  0  0  0  0  0  0  0  0  0  0  0
    4.1103   -2.5442    1.1364 O   0  0  0  0  0  0  0  0  0  0  0  0
    5.4170   -2.5558    1.5468 C   0  0  0  0  0  0  0  0  0  0  0  0
    6.1260   -1.4257    1.9701 C   0  0  0  0  0  0  0  0  0  0  0  0
    7.4621   -1.5381    2.3711 C   0  0  0  0  0  0  0  0  0  0  0  0
    8.0954   -2.7784    2.3510 C   0  0  0  0  0  0  0  0  0  0  0  0
    9.7377   -2.9053    2.8462 Cl  0  0  0  0  0  0  0  0  0  0  0  0
    7.4083   -3.9124    1.9335 C   0  0  0  0  0  0  0  0  0  0  0  0
    6.0744   -3.7994    1.5332 C   0  0  0  0  0  0  0  0  0  0  0  0
    5.2648   -5.2407    1.0234 Cl  0  0  0  0  0  0  0  0  0  0  0  0
   -0.6321    1.2841    0.4725 C   0  0  0  0  0  0  0  0  0  0  0  0
    0.0522    2.4148    1.1027 C   0  0  0  0  0  0  0  0  0  0  0  0
   -0.7347    3.4076    1.6093 N   0  0  0  0  0  0  0  0  0  0  0  0
    1.2720    2.4574    1.2538 O   0  0  0  0  0  0  0  0  0  0  0  0
   -3.6057   -0.4296   -1.2095 C   0  0  0  0  0  0  0  0  0  0  0  0
   -4.3588   -1.4230   -0.3001 C   0  0  0  0  0  0  0  0  0  0  0  0
   -3.3994   -1.0870   -2.5880 C   0  0  0  0  0  0  0  0  0  0  0  0
   -4.5244    0.7305   -1.3393 N   0  0  0  0  0  0  0  0  0  0  0  0
   -3.9388    2.0100   -3.6636 H   0  0  0  0  0  0  0  0  0  0  0  0
   -2.9783    3.3287   -2.9887 H   0  0  0  0  0  0  0  0  0  0  0  0
   -2.3441    1.6900   -2.9614 H   0  0  0  0  0  0  0  0  0  0  0  0
   -5.6280    2.9670   -0.4145 H   0  0  0  0  0  0  0  0  0  0  0  0
   -4.7299    4.1083   -1.4219 H   0  0  0  0  0  0  0  0  0  0  0  0
   -5.8195    2.9350   -2.1741 H   0  0  0  0  0  0  0  0  0  0  0  0
   -2.3882    3.2991   -0.5332 H   0  0  0  0  0  0  0  0  0  0  0  0
   -3.4701    2.5034    0.6214 H   0  0  0  0  0  0  0  0  0  0  0  0
    1.8104    0.5749    1.0871 H   0  0  0  0  0  0  0  0  0  0  0  0
    3.3771   -0.9164    2.1778 H   0  0  0  0  0  0  0  0  0  0  0  0
    3.9071   -0.5924    0.4841 H   0  0  0  0  0  0  0  0  0  0  0  0
    5.6740   -0.4396    2.0010 H   0  0  0  0  0  0  0  0  0  0  0  0
    8.0021   -0.6523    2.6976 H   0  0  0  0  0  0  0  0  0  0  0  0
    7.9039   -4.8791    1.9182 H   0  0  0  0  0  0  0  0  0  0  0  0
   -0.2608    4.0881    2.1883 H   0  0  0  0  0  0  0  0  0  0  0  0
   -1.7047    3.2246    1.8216 H   0  0  0  0  0  0  0  0  0  0  0  0
   -4.5240   -1.0057    0.7012 H   0  0  0  0  0  0  0  0  0  0  0  0
   -3.8027   -2.3593   -0.1734 H   0  0  0  0  0  0  0  0  0  0  0  0
   -5.3384   -1.6864   -0.7180 H   0  0  0  0  0  0  0  0  0  0  0  0
   -4.3578   -1.2979   -3.0778 H   0  0  0  0  0  0  0  0  0  0  0  0
   -2.8749   -2.0460   -2.5015 H   0  0  0  0  0  0  0  0  0  0  0  0
   -2.8105   -0.4621   -3.2655 H   0  0  0  0  0  0  0  0  0  0  0  0
   -5.1929    0.5584   -2.0883 H   0  0  0  0  0  0  0  0  0  0  0  0
  1  2  1  0
  2  3  1  0
  2  4  1  0
  4  5  1  0
  5  6  2  0
  6  7  1  0
  7  8  1  0
  8  9  1  0
  9 10  1  0
 10 11  2  0
 10 12  1  0
 12 13  1  0
 13 14  1  0
 14 15  2  0
 15 16  1  0
 16 17  2  0
 17 18  1  0
 17 19  1  0
 19 20  2  0
 20 21  1  0
  8 22  2  0
 22 23  1  0
 23 24  1  0
 23 25  2  0
  6 26  1  0
 26 27  1  0
 26 28  1  0
 26 29  1  0
 29  2  1  0
 22  5  1  0
 20 14  1  0
  1 30  1  0
  1 31  1  0
  1 32  1  0
  3 33  1  0
  3 34  1  0
  3 35  1  0
  4 36  1  0
  4 37  1  0
  9 38  1  0
 12 39  1  0
 12 40  1  0
 15 41  1  0
 16 42  1  0
 19 43  1  0
 24 44  1  0
 24 45  1  0
 27 46  1  0
 27 47  1  0
 27 48  1  0
 28 49  1  0
 28 50  1  0
 28 51  1  0
 29 52  1  0
M  END
$$$$
