
     RDKit          3D

 50 52  0  0  0  0  0  0  0  0999 V2000
    4.4360   -1.0009   -3.9861 O   0  0  0  0  0  0  0  0  0  0  0  0
    4.1280    0.1117   -3.6029 C   0  0  0  0  0  0  0  0  0  0  0  0
    4.1507    1.1714   -4.4263 O   0  0  0  0  0  0  0  0  0  0  0  0
    3.7008    0.4640   -2.2280 C   0  0  0  0  0  0  0  0  0  0  0  0
    3.2881    1.7583   -1.8895 C   0  0  0  0  0  0  0  0  0  0  0  0
    2.8919    2.0420   -0.5832 C   0  0  0  0  0  0  0  0  0  0  0  0
    2.4040    3.3325   -0.2356 N   0  0  0  0  0  0  0  0  0  0  0  0
    0.9348    3.8611   -0.8868 S   0  0  0  0  0  6  0  0  0  0  0  0
    1.0538    3.9474   -2.3251 O   0  0  0  0  0  0  0  0  0  0  0  0
    0.5183    4.9931   -0.0884 O   0  0  0  0  0  0  0  0  0  0  0  0
   -0.1645    2.5159   -0.5060 C   0  0  0  0  0  0  0  0  0  0  0  0
   -0.5014    1.5875   -1.4901 C   0  0  0  0  0  0  0  0  0  0  0  0
   -1.3322    0.5037   -1.1715 C   0  0  0  0  0  0  0  0  0  0  0  0
   -1.8511    0.3080    0.1237 C   0  0  0  0  0  0  0  0  0  0  0  0
   -2.6251   -0.8130    0.4119 N   0  0  0  0  0  0  0  0  0  0  0  0
   -2.2324   -1.6717    1.5443 C   0  0  0  0  0  0  0  0  0  0  0  0
   -2.3958   -3.1499    1.1983 C   0  0  0  0  0  0  0  0  0  0  0  0
   -3.8236   -3.4841    0.7705 C   0  0  0  0  0  0  0  0  0  0  0  0
   -4.4994   -2.3376    0.0183 C   0  0  0  0  0  0  0  0  0  0  0  0
   -3.4771   -1.4067   -0.6275 C   0  0  0  0  0  0  0  0  0  0  0  0
   -1.5194    1.3060    1.0662 C   0  0  0  0  0  0  0  0  0  0  0  0
   -2.0756    1.2729    2.4028 N   0  0  0  0  0  4  0  0  0  0  0  0
   -3.2676    1.5781    2.5383 O   0  0  0  0  0  0  0  0  0  0  0  0
   -1.2906    0.9902    3.3206 O   0  0  0  0  0  1  0  0  0  0  0  0
   -0.6898    2.4017    0.7771 C   0  0  0  0  0  0  0  0  0  0  0  0
    2.9039    1.0436    0.3908 C   0  0  0  0  0  0  0  0  0  0  0  0
    3.3074   -0.2541    0.0548 C   0  0  0  0  0  0  0  0  0  0  0  0
    3.3151   -1.3507    1.0519 C   0  0  0  0  0  0  0  0  0  0  0  0
    3.6292   -2.5057    0.8391 O   0  0  0  0  0  0  0  0  0  0  0  0
    2.9243   -0.9404    2.2705 O   0  0  0  0  0  0  0  0  0  0  0  0
    3.7058   -0.5430   -1.2552 C   0  0  0  0  0  0  0  0  0  0  0  0
    4.4486    0.8077   -5.2867 H   0  0  0  0  0  0  0  0  0  0  0  0
    3.2773    2.5453   -2.6412 H   0  0  0  0  0  0  0  0  0  0  0  0
    2.5390    3.6619    0.7202 H   0  0  0  0  0  0  0  0  0  0  0  0
   -0.1131    1.6820   -2.5035 H   0  0  0  0  0  0  0  0  0  0  0  0
   -1.5395   -0.2140   -1.9627 H   0  0  0  0  0  0  0  0  0  0  0  0
   -1.1857   -1.5024    1.8229 H   0  0  0  0  0  0  0  0  0  0  0  0
   -2.8559   -1.4310    2.4126 H   0  0  0  0  0  0  0  0  0  0  0  0
   -2.1105   -3.7740    2.0528 H   0  0  0  0  0  0  0  0  0  0  0  0
   -1.7087   -3.4052    0.3809 H   0  0  0  0  0  0  0  0  0  0  0  0
   -3.8025   -4.3828    0.1421 H   0  0  0  0  0  0  0  0  0  0  0  0
   -4.4295   -3.7401    1.6480 H   0  0  0  0  0  0  0  0  0  0  0  0
   -5.1163   -1.7635    0.7212 H   0  0  0  0  0  0  0  0  0  0  0  0
   -5.1799   -2.7415   -0.7391 H   0  0  0  0  0  0  0  0  0  0  0  0
   -4.0158   -0.6206   -1.1699 H   0  0  0  0  0  0  0  0  0  0  0  0
   -2.8724   -1.9665   -1.3524 H   0  0  0  0  0  0  0  0  0  0  0  0
   -0.4677    3.1456    1.5398 H   0  0  0  0  0  0  0  0  0  0  0  0
    2.5847    1.2683    1.4055 H   0  0  0  0  0  0  0  0  0  0  0  0
    2.9814   -1.7471    2.8267 H   0  0  0  0  0  0  0  0  0  0  0  0
    4.0201   -1.5531   -1.5189 H   0  0  0  0  0  0  0  0  0  0  0  0
  1  2  2  0
  2  3  1  0
  2  4  1  0
  4  5  2  0
  5  6  1  0
  6  7  1  0
  7  8  1  0
  8  9  2  0
  8 10  2  0
  8 11  1  0
 11 12  2  0
 12 13  1  0
 13 14  2  0
 14 15  1  0
 15 16  1  0
 16 17  1  0
 17 18  1  0
 18 19  1  0
 19 20  1  0
 14 21  1  0
 21 22  1  0
 22 23  2  0
 22 24  1  0
 21 25  2  0
  6 26  2  0
 26 27  1  0
 27 28  1  0
 28 29  2  0
 28 30  1  0
 27 31  2  0
 31  4  1  0
 25 11  1  0
 20 15  1  0
  3 32  1  0
  5 33  1  0
  7 34  1  0
 12 35  1  0
 13 36  1  0
 16 37  1  0
 16 38  1  0
 17 39  1  0
 17 40  1  0
 18 41  1  0
 18 42  1  0
 19 43  1  0
 19 44  1  0
 20 45  1  0
 20 46  1  0
 25 47  1  0
 26 48  1  0
 30 49  1  0
 31 50  1  0
M  CHG  2  22   1  24  -1
M  END
$$$$
