
     RDKit          3D

 42 44  0  0  0  0  0  0  0  0999 V2000
   -2.2582   -0.0193    2.2877 O   0  0  0  0  0  0  0  0  0  0  0  0
   -1.8500   -0.2159    1.1406 C   0  0  0  0  0  0  0  0  0  0  0  0
   -2.0739   -1.5742    0.4269 C   0  0  0  0  0  0  0  0  0  0  0  0
   -2.7616   -2.6033    1.3141 C   0  0  0  0  0  0  0  0  0  0  0  0
   -4.2204   -2.3590    1.0190 C   0  0  0  0  0  0  0  0  0  0  0  0
   -4.1906   -2.0227   -0.4542 C   0  0  0  0  0  0  0  0  0  0  0  0
   -2.9139   -1.4287   -0.7288 O   0  0  0  0  0  0  0  0  0  0  0  0
   -1.1399    0.7605    0.4491 N   0  0  0  0  0  0  0  0  0  0  0  0
   -0.5935    0.5841   -0.9010 C   0  0  0  0  0  0  0  0  0  0  0  0
   -0.0436    1.8817   -1.5109 C   0  0  0  0  0  0  0  0  0  0  0  0
    0.9130    2.5701   -0.6037 N   0  0  0  0  0  0  0  0  0  0  0  0
    2.5425    2.6421   -1.0540 S   0  0  0  0  0  6  0  0  0  0  0  0
    3.2475    3.4198   -0.0571 O   0  0  0  0  0  0  0  0  0  0  0  0
    2.6033    2.9901   -2.4580 O   0  0  0  0  0  0  0  0  0  0  0  0
    3.0875    0.9524   -0.9020 C   0  0  0  0  0  0  0  0  0  0  0  0
    3.6320    0.5039    0.3052 C   0  0  0  0  0  0  0  0  0  0  0  0
    4.0723   -0.8152    0.4130 C   0  0  0  0  0  0  0  0  0  0  0  0
    3.9862   -1.6729   -0.6849 C   0  0  0  0  0  0  0  0  0  0  0  0
    3.4709   -1.2132   -1.8978 C   0  0  0  0  0  0  0  0  0  0  0  0
    3.0278    0.1044   -2.0132 C   0  0  0  0  0  0  0  0  0  0  0  0
    0.6100    2.4638    0.8514 C   0  0  0  0  0  0  0  0  0  0  0  0
   -0.8406    2.0366    1.1049 C   0  0  0  0  0  0  0  0  0  0  0  0
   -1.0944   -1.9516    0.1134 H   0  0  0  0  0  0  0  0  0  0  0  0
   -2.5179   -2.5264    2.3771 H   0  0  0  0  0  0  0  0  0  0  0  0
   -2.4920   -3.6130    0.9800 H   0  0  0  0  0  0  0  0  0  0  0  0
   -4.5820   -1.4982    1.5931 H   0  0  0  0  0  0  0  0  0  0  0  0
   -4.8636   -3.2129    1.2475 H   0  0  0  0  0  0  0  0  0  0  0  0
   -4.9876   -1.3317   -0.7432 H   0  0  0  0  0  0  0  0  0  0  0  0
   -4.2746   -2.9260   -1.0677 H   0  0  0  0  0  0  0  0  0  0  0  0
   -1.3676    0.1853   -1.5601 H   0  0  0  0  0  0  0  0  0  0  0  0
    0.2016   -0.1653   -0.8254 H   0  0  0  0  0  0  0  0  0  0  0  0
   -0.8680    2.5796   -1.7039 H   0  0  0  0  0  0  0  0  0  0  0  0
    0.4061    1.6658   -2.4845 H   0  0  0  0  0  0  0  0  0  0  0  0
    3.7226    1.1726    1.1584 H   0  0  0  0  0  0  0  0  0  0  0  0
    4.4944   -1.1728    1.3495 H   0  0  0  0  0  0  0  0  0  0  0  0
    4.3384   -2.6985   -0.5996 H   0  0  0  0  0  0  0  0  0  0  0  0
    3.4275   -1.8795   -2.7563 H   0  0  0  0  0  0  0  0  0  0  0  0
    2.6493    0.4623   -2.9681 H   0  0  0  0  0  0  0  0  0  0  0  0
    0.7856    3.4390    1.3178 H   0  0  0  0  0  0  0  0  0  0  0  0
    1.2737    1.7308    1.3198 H   0  0  0  0  0  0  0  0  0  0  0  0
   -1.0216    1.9767    2.1826 H   0  0  0  0  0  0  0  0  0  0  0  0
   -1.5368    2.7786    0.6959 H   0  0  0  0  0  0  0  0  0  0  0  0
  1  2  2  0
  2  3  1  0
  3  4  1  0
  4  5  1  0
  5  6  1  0
  6  7  1  0
  2  8  1  0
  8  9  1  0
  9 10  1  0
 10 11  1  0
 11 12  1  0
 12 13  2  0
 12 14  2  0
 12 15  1  0
 15 16  2  0
 16 17  1  0
 17 18  2  0
 18 19  1  0
 19 20  2  0
 11 21  1  0
 21 22  1  0
  7  3  1  0
 22  8  1  0
 20 15  1  0
  3 23  1  0
  4 24  1  0
  4 25  1  0
  5 26  1  0
  5 27  1  0
  6 28  1  0
  6 29  1  0
  9 30  1  0
  9 31  1  0
 10 32  1  0
 10 33  1  0
 16 34  1  0
 17 35  1  0
 18 36  1  0
 19 37  1  0
 20 38  1  0
 21 39  1  0
 21 40  1  0
 22 41  1  0
 22 42  1  0
M  END
$$$$
