
     RDKit          3D

 47 51  0  0  0  0  0  0  0  0999 V2000
   -4.3391   -2.1901    0.2347 C   0  0  0  0  0  0  0  0  0  0  0  0
   -4.8011   -0.8135   -0.0811 C   0  0  0  0  0  0  0  0  0  0  0  0
   -4.0275    0.2972   -0.4164 C   0  0  0  0  0  0  0  0  0  0  0  0
   -2.5927    0.5269   -0.5246 C   0  0  0  0  0  0  0  0  0  0  0  0
   -2.1167    1.3114   -1.3390 O   0  0  0  0  0  0  0  0  0  0  0  0
   -1.8467   -0.1920    0.3994 N   0  0  0  0  0  0  0  0  0  0  0  0
   -0.4427   -0.2449    0.5294 C   0  0  0  0  0  0  0  0  0  0  0  0
    0.0602   -0.9655    1.6174 C   0  0  0  0  0  0  0  0  0  0  0  0
    1.4392   -1.0858    1.8327 C   0  0  0  0  0  0  0  0  0  0  0  0
    2.3397   -0.4756    0.9405 C   0  0  0  0  0  0  0  0  0  0  0  0
    3.7179   -0.5115    1.0283 N   0  0  0  0  0  0  0  0  0  0  0  0
    4.2808    0.1630    0.0475 C   0  0  0  0  0  0  0  0  0  0  0  0
    5.6406    0.2676   -0.1045 N   0  0  0  0  0  0  0  0  0  0  0  0
    6.2056    1.4815   -0.7247 C   0  0  0  0  0  0  0  0  0  0  0  0
    7.6972    1.2836   -1.0374 C   0  0  0  0  0  0  0  0  0  0  0  0
    8.4369    0.8944    0.1283 O   0  0  0  0  0  0  0  0  0  0  0  0
    7.9237   -0.3458    0.6369 C   0  0  0  0  0  0  0  0  0  0  0  0
    6.4468   -0.2224    1.0340 C   0  0  0  0  0  0  0  0  0  0  0  0
    3.1391    0.8561   -1.0569 S   0  0  0  0  0  0  0  0  0  0  0  0
    1.8288    0.2332   -0.1402 C   0  0  0  0  0  0  0  0  0  0  0  0
    0.4442    0.3614   -0.3676 C   0  0  0  0  0  0  0  0  0  0  0  0
   -4.8461    1.3568   -0.7033 O   0  0  0  0  0  0  0  0  0  0  0  0
   -6.1278    0.9539   -0.5229 C   0  0  0  0  0  0  0  0  0  0  0  0
   -7.2551    1.7521   -0.7022 C   0  0  0  0  0  0  0  0  0  0  0  0
   -8.4929    1.1463   -0.4670 C   0  0  0  0  0  0  0  0  0  0  0  0
   -8.5769   -0.1917   -0.0751 C   0  0  0  0  0  0  0  0  0  0  0  0
   -7.4213   -0.9687    0.0946 C   0  0  0  0  0  0  0  0  0  0  0  0
   -6.1638   -0.3767   -0.1333 C   0  0  0  0  0  0  0  0  0  0  0  0
   -5.1124   -2.9301    0.0052 H   0  0  0  0  0  0  0  0  0  0  0  0
   -4.0932   -2.2742    1.2979 H   0  0  0  0  0  0  0  0  0  0  0  0
   -3.4531   -2.4537   -0.3516 H   0  0  0  0  0  0  0  0  0  0  0  0
   -2.3753   -0.6736    1.1131 H   0  0  0  0  0  0  0  0  0  0  0  0
   -0.6095   -1.4474    2.3258 H   0  0  0  0  0  0  0  0  0  0  0  0
    1.8230   -1.6441    2.6807 H   0  0  0  0  0  0  0  0  0  0  0  0
    5.7036    1.7333   -1.6646 H   0  0  0  0  0  0  0  0  0  0  0  0
    6.0876    2.3233   -0.0307 H   0  0  0  0  0  0  0  0  0  0  0  0
    7.8371    0.5262   -1.8182 H   0  0  0  0  0  0  0  0  0  0  0  0
    8.1259    2.2216   -1.4044 H   0  0  0  0  0  0  0  0  0  0  0  0
    8.5219   -0.6184    1.5121 H   0  0  0  0  0  0  0  0  0  0  0  0
    8.0642   -1.1275   -0.1194 H   0  0  0  0  0  0  0  0  0  0  0  0
    6.3519    0.4843    1.8684 H   0  0  0  0  0  0  0  0  0  0  0  0
    6.1021   -1.2073    1.3712 H   0  0  0  0  0  0  0  0  0  0  0  0
    0.1060    0.9205   -1.2325 H   0  0  0  0  0  0  0  0  0  0  0  0
   -7.1685    2.7870   -1.0102 H   0  0  0  0  0  0  0  0  0  0  0  0
   -9.4037    1.7277   -0.5944 H   0  0  0  0  0  0  0  0  0  0  0  0
   -9.5532   -0.6397    0.0985 H   0  0  0  0  0  0  0  0  0  0  0  0
   -7.5044   -2.0086    0.3956 H   0  0  0  0  0  0  0  0  0  0  0  0
  1  2  1  0
  2  3  2  0
  3  4  1  0
  4  5  2  0
  4  6  1  0
  6  7  1  0
  7  8  2  0
  8  9  1  0
  9 10  2  0
 10 11  1  0
 11 12  2  0
 12 13  1  0
 13 14  1  0
 14 15  1  0
 15 16  1  0
 16 17  1  0
 17 18  1  0
 12 19  1  0
 19 20  1  0
 20 21  2  0
  3 22  1  0
 22 23  1  0
 23 24  2  0
 24 25  1  0
 25 26  2  0
 26 27  1  0
 27 28  2  0
 28  2  1  0
 21  7  1  0
 28 23  1  0
 20 10  1  0
 18 13  1  0
  1 29  1  0
  1 30  1  0
  1 31  1  0
  6 32  1  0
  8 33  1  0
  9 34  1  0
 14 35  1  0
 14 36  1  0
 15 37  1  0
 15 38  1  0
 17 39  1  0
 17 40  1  0
 18 41  1  0
 18 42  1  0
 21 43  1  0
 24 44  1  0
 25 45  1  0
 26 46  1  0
 27 47  1  0
M  END
$$$$
