
     RDKit          3D

 49 51  0  0  0  0  0  0  0  0999 V2000
    5.1320    0.0569   -2.9792 C   0  0  0  0  0  0  0  0  0  0  0  0
    5.2605    0.1590   -1.4869 C   0  0  0  0  0  0  0  0  0  0  0  0
    6.5253    0.2377   -0.8907 C   0  0  0  0  0  0  0  0  0  0  0  0
    6.6496    0.3243    0.4963 C   0  0  0  0  0  0  0  0  0  0  0  0
    5.5117    0.3124    1.2969 C   0  0  0  0  0  0  0  0  0  0  0  0
    5.7130    0.4308    2.6462 O   0  0  0  0  0  0  0  0  0  0  0  0
    4.2393    0.1815    0.7248 C   0  0  0  0  0  0  0  0  0  0  0  0
    3.0463    0.1373    1.6078 C   0  0  0  0  0  0  0  0  0  0  0  0
    3.1003    0.6951    2.7037 O   0  0  0  0  0  0  0  0  0  0  0  0
    1.8053   -0.5682    1.2339 C   0  0  0  0  0  0  0  0  0  0  0  0
    1.8181   -1.7815    0.5595 C   0  0  0  0  0  0  0  0  0  0  0  0
    0.6976   -2.4597    0.2131 N   0  0  0  0  0  0  0  0  0  0  0  0
   -0.4811   -1.9132    0.5756 C   0  0  0  0  0  0  0  0  0  0  0  0
   -0.5989   -0.7293    1.2799 C   0  0  0  0  0  0  0  0  0  0  0  0
    0.5711   -0.0477    1.6253 C   0  0  0  0  0  0  0  0  0  0  0  0
   -1.9511   -0.2824    1.7195 C   0  0  0  0  0  0  0  0  0  0  0  0
   -3.0393   -0.8850    0.9636 N   0  0  0  0  0  0  0  0  0  0  0  0
   -4.3865   -0.3554    1.1767 C   0  0  0  0  0  0  0  0  0  0  0  0
   -4.5983    1.0474    0.5934 C   0  0  0  0  0  0  0  0  0  0  0  0
   -4.3368    1.1654   -0.9208 C   0  0  0  0  0  0  0  0  0  0  0  0
   -5.2981    0.3083   -1.7451 C   0  0  0  0  0  0  0  0  0  0  0  0
   -4.4537    2.6297   -1.3527 C   0  0  0  0  0  0  0  0  0  0  0  0
   -2.8960   -2.1230    0.3642 C   0  0  0  0  0  0  0  0  0  0  0  0
   -3.8365   -2.7898   -0.0625 O   0  0  0  0  0  0  0  0  0  0  0  0
   -1.6280   -2.5900    0.2166 N   0  0  0  0  0  0  0  0  0  0  0  0
    4.1186    0.1253   -0.6719 C   0  0  0  0  0  0  0  0  0  0  0  0
    5.9615    0.5678   -3.4793 H   0  0  0  0  0  0  0  0  0  0  0  0
    4.2056    0.5282   -3.3238 H   0  0  0  0  0  0  0  0  0  0  0  0
    5.1294   -0.9945   -3.2827 H   0  0  0  0  0  0  0  0  0  0  0  0
    7.4244    0.2463   -1.5039 H   0  0  0  0  0  0  0  0  0  0  0  0
    7.6324    0.4085    0.9530 H   0  0  0  0  0  0  0  0  0  0  0  0
    4.8422    0.6178    3.0635 H   0  0  0  0  0  0  0  0  0  0  0  0
    2.7441   -2.2750    0.2767 H   0  0  0  0  0  0  0  0  0  0  0  0
    0.5256    0.8748    2.2003 H   0  0  0  0  0  0  0  0  0  0  0  0
   -2.0175    0.8047    1.6135 H   0  0  0  0  0  0  0  0  0  0  0  0
   -2.0949   -0.5441    2.7743 H   0  0  0  0  0  0  0  0  0  0  0  0
   -4.5595   -0.3314    2.2596 H   0  0  0  0  0  0  0  0  0  0  0  0
   -5.1401   -1.0348    0.7659 H   0  0  0  0  0  0  0  0  0  0  0  0
   -3.9542    1.7595    1.1231 H   0  0  0  0  0  0  0  0  0  0  0  0
   -5.6291    1.3566    0.8101 H   0  0  0  0  0  0  0  0  0  0  0  0
   -3.3122    0.8388   -1.1364 H   0  0  0  0  0  0  0  0  0  0  0  0
   -5.1601   -0.7571   -1.5409 H   0  0  0  0  0  0  0  0  0  0  0  0
   -5.1280    0.4570   -2.8170 H   0  0  0  0  0  0  0  0  0  0  0  0
   -6.3412    0.5640   -1.5307 H   0  0  0  0  0  0  0  0  0  0  0  0
   -3.7419    3.2553   -0.8038 H   0  0  0  0  0  0  0  0  0  0  0  0
   -5.4607    3.0197   -1.1690 H   0  0  0  0  0  0  0  0  0  0  0  0
   -4.2374    2.7391   -2.4207 H   0  0  0  0  0  0  0  0  0  0  0  0
   -1.5140   -3.4601   -0.2808 H   0  0  0  0  0  0  0  0  0  0  0  0
    3.1410    0.0730   -1.1460 H   0  0  0  0  0  0  0  0  0  0  0  0
  1  2  1  0
  2  3  2  0
  3  4  1  0
  4  5  2  0
  5  6  1  0
  5  7  1  0
  7  8  1  0
  8  9  2  0
  8 10  1  0
 10 11  2  0
 11 12  1  0
 12 13  2  0
 13 14  1  0
 14 15  2  0
 14 16  1  0
 16 17  1  0
 17 18  1  0
 18 19  1  0
 19 20  1  0
 20 21  1  0
 20 22  1  0
 17 23  1  0
 23 24  2  0
 23 25  1  0
  7 26  2  0
 26  2  1  0
 15 10  1  0
 25 13  1  0
  1 27  1  0
  1 28  1  0
  1 29  1  0
  3 30  1  0
  4 31  1  0
  6 32  1  0
 11 33  1  0
 15 34  1  0
 16 35  1  0
 16 36  1  0
 18 37  1  0
 18 38  1  0
 19 39  1  0
 19 40  1  0
 20 41  1  0
 21 42  1  0
 21 43  1  0
 21 44  1  0
 22 45  1  0
 22 46  1  0
 22 47  1  0
 25 48  1  0
 26 49  1  0
M  END
$$$$
