
     RDKit          3D

 56 59  0  0  0  0  0  0  0  0999 V2000
    4.6949   -4.2003   -0.0944 C   0  0  0  0  0  0  0  0  0  0  0  0
    4.3758   -3.0379   -1.0234 C   0  0  0  0  0  0  0  0  0  0  0  0
    5.0149   -1.8618   -0.5039 O   0  0  0  0  0  0  0  0  0  0  0  0
    4.1476   -0.7987   -0.4572 C   0  0  0  0  0  0  0  0  0  0  0  0
    3.1648   -0.7674    0.5377 C   0  0  0  0  0  0  0  0  0  0  0  0
    2.2887    0.3158    0.6194 C   0  0  0  0  0  0  0  0  0  0  0  0
    1.2655    0.3325    1.6684 C   0  0  0  0  0  0  0  0  0  0  0  0
   -0.0652    0.3322    1.4942 C   0  0  0  0  0  0  0  0  0  0  0  0
   -1.1519    0.3481    2.8241 S   0  0  0  0  0  0  0  0  0  0  0  0
   -2.5674    0.4653    1.7920 C   0  0  0  0  0  0  0  0  0  0  0  0
   -3.7808    0.6343    2.2136 N   0  0  0  0  0  0  0  0  0  0  0  0
   -4.0729    0.6992    3.5813 C   0  0  0  0  0  0  0  0  0  0  0  0
   -4.3757   -0.4662    4.2949 C   0  0  0  0  0  0  0  0  0  0  0  0
   -4.6938   -0.4026    5.6530 C   0  0  0  0  0  0  0  0  0  0  0  0
   -4.7257    0.8312    6.3025 C   0  0  0  0  0  0  0  0  0  0  0  0
   -4.4445    1.9993    5.5930 C   0  0  0  0  0  0  0  0  0  0  0  0
   -4.1267    1.9333    4.2344 C   0  0  0  0  0  0  0  0  0  0  0  0
   -2.2015    0.4022    0.4551 N   0  0  0  0  0  0  0  0  0  0  0  0
   -3.1502    0.4202   -0.6299 C   0  0  0  0  0  0  0  0  0  0  0  0
   -4.4591   -0.0755   -0.4836 C   0  0  0  0  0  0  0  0  0  0  0  0
   -5.3738   -0.0572   -1.5454 C   0  0  0  0  0  0  0  0  0  0  0  0
   -5.0006    0.4586   -2.7810 C   0  0  0  0  0  0  0  0  0  0  0  0
   -3.7118    0.9531   -2.9547 C   0  0  0  0  0  0  0  0  0  0  0  0
   -2.8007    0.9352   -1.8914 C   0  0  0  0  0  0  0  0  0  0  0  0
   -0.8322    0.2964    0.2114 C   0  0  0  0  0  0  0  0  0  0  0  0
   -0.2804    0.1385   -0.8713 O   0  0  0  0  0  0  0  0  0  0  0  0
    2.4406    1.3811   -0.2736 C   0  0  0  0  0  0  0  0  0  0  0  0
    3.4410    1.3562   -1.2556 C   0  0  0  0  0  0  0  0  0  0  0  0
    4.3074    0.2650   -1.3561 C   0  0  0  0  0  0  0  0  0  0  0  0
    5.3199    0.1308   -2.2682 O   0  0  0  0  0  0  0  0  0  0  0  0
    5.4781    1.1334   -3.2561 C   0  0  0  0  0  0  0  0  0  0  0  0
    4.4463    1.0975   -4.3701 C   0  0  0  0  0  0  0  0  0  0  0  0
    3.7405    2.0303   -4.7260 O   0  0  0  0  0  0  0  0  0  0  0  0
    4.3673   -0.0981   -4.9900 O   0  0  0  0  0  0  0  0  0  0  0  0
    5.7760   -4.3618   -0.0391 H   0  0  0  0  0  0  0  0  0  0  0  0
    4.3525   -3.9842    0.9252 H   0  0  0  0  0  0  0  0  0  0  0  0
    4.2155   -5.1251   -0.4401 H   0  0  0  0  0  0  0  0  0  0  0  0
    4.7844   -3.2322   -2.0243 H   0  0  0  0  0  0  0  0  0  0  0  0
    3.2881   -2.9366   -1.1219 H   0  0  0  0  0  0  0  0  0  0  0  0
    3.0900   -1.5936    1.2385 H   0  0  0  0  0  0  0  0  0  0  0  0
    1.6777    0.3282    2.6770 H   0  0  0  0  0  0  0  0  0  0  0  0
   -4.3617   -1.4277    3.7886 H   0  0  0  0  0  0  0  0  0  0  0  0
   -4.9185   -1.3140    6.2017 H   0  0  0  0  0  0  0  0  0  0  0  0
   -4.9727    0.8826    7.3597 H   0  0  0  0  0  0  0  0  0  0  0  0
   -4.4762    2.9624    6.0965 H   0  0  0  0  0  0  0  0  0  0  0  0
   -3.9180    2.8468    3.6809 H   0  0  0  0  0  0  0  0  0  0  0  0
   -4.8024   -0.5058    0.4508 H   0  0  0  0  0  0  0  0  0  0  0  0
   -6.3790   -0.4454   -1.3991 H   0  0  0  0  0  0  0  0  0  0  0  0
   -5.7112    0.4766   -3.6049 H   0  0  0  0  0  0  0  0  0  0  0  0
   -3.4100    1.3627   -3.9169 H   0  0  0  0  0  0  0  0  0  0  0  0
   -1.8173    1.3635   -2.0757 H   0  0  0  0  0  0  0  0  0  0  0  0
    1.7770    2.2422   -0.2220 H   0  0  0  0  0  0  0  0  0  0  0  0
    3.5034    2.2123   -1.9194 H   0  0  0  0  0  0  0  0  0  0  0  0
    6.4552    0.9779   -3.7278 H   0  0  0  0  0  0  0  0  0  0  0  0
    5.5234    2.1348   -2.8131 H   0  0  0  0  0  0  0  0  0  0  0  0
    3.6453    0.0125   -5.6425 H   0  0  0  0  0  0  0  0  0  0  0  0
  1  2  1  0
  2  3  1  0
  3  4  1  0
  4  5  2  0
  5  6  1  0
  6  7  1  0
  7  8  2  3
  8  9  1  0
  9 10  1  0
 10 11  2  3
 11 12  1  0
 12 13  2  0
 13 14  1  0
 14 15  2  0
 15 16  1  0
 16 17  2  0
 10 18  1  0
 18 19  1  0
 19 20  2  0
 20 21  1  0
 21 22  2  0
 22 23  1  0
 23 24  2  0
 18 25  1  0
 25 26  2  0
  6 27  2  0
 27 28  1  0
 28 29  2  0
 29 30  1  0
 30 31  1  0
 31 32  1  0
 32 33  2  0
 32 34  1  0
 29  4  1  0
 25  8  1  0
 17 12  1  0
 24 19  1  0
  1 35  1  0
  1 36  1  0
  1 37  1  0
  2 38  1  0
  2 39  1  0
  5 40  1  0
  7 41  1  0
 13 42  1  0
 14 43  1  0
 15 44  1  0
 16 45  1  0
 17 46  1  0
 20 47  1  0
 21 48  1  0
 22 49  1  0
 23 50  1  0
 24 51  1  0
 27 52  1  0
 28 53  1  0
 31 54  1  0
 31 55  1  0
 34 56  1  0
M  END
$$$$
