
     RDKit          3D

 61 66  0  0  0  0  0  0  0  0999 V2000
   -3.4866    5.6493    1.2493 C   0  0  0  0  0  0  0  0  0  0  0  0
   -2.8439    4.4421    0.5691 C   0  0  0  0  0  0  0  0  0  0  0  0
   -2.9500    3.1890    1.4633 C   0  0  0  0  0  0  0  0  0  0  0  0
   -2.4046    1.9352    0.7593 C   0  0  0  0  0  0  0  0  0  0  0  0
   -1.0999    2.1983    0.0645 C   0  0  0  0  0  0  0  0  0  0  0  0
   -0.6587    3.4855   -0.1831 C   0  0  0  0  0  0  0  0  0  0  0  0
    0.8480    3.5214   -0.9672 S   0  0  0  0  0  0  0  0  0  0  0  0
    0.9387    1.8195   -0.9957 C   0  0  0  0  0  0  0  0  0  0  0  0
    2.0108    1.2147   -1.5297 N   0  0  0  0  0  0  0  0  0  0  0  0
    1.9421   -0.1221   -1.4645 C   0  0  0  0  0  0  0  0  0  0  0  0
    3.1418   -0.9052   -1.9896 C   0  0  0  0  0  0  0  0  0  0  0  0
    4.2000   -1.1743   -0.9854 N   0  0  0  0  0  0  0  0  0  0  0  0
    4.8270    0.0862   -0.5218 C   0  0  0  0  0  0  0  0  0  0  0  0
    6.2515   -0.1404    0.0054 C   0  0  0  0  0  0  0  0  0  0  0  0
    7.1448   -0.6191   -1.0103 O   0  0  0  0  0  0  0  0  0  0  0  0
    6.4893   -1.4033   -2.0158 C   0  0  0  0  0  0  0  0  0  0  0  0
    5.2219   -2.1055   -1.5042 C   0  0  0  0  0  0  0  0  0  0  0  0
    0.9139   -0.8372   -0.9633 N   0  0  0  0  0  0  0  0  0  0  0  0
   -0.1659   -0.2051   -0.4475 C   0  0  0  0  0  0  0  0  0  0  0  0
   -1.2486   -0.9584    0.0462 N   0  0  0  0  0  0  0  0  0  0  0  0
   -2.2132   -1.2189   -1.0330 C   0  0  0  0  0  0  0  0  0  0  0  0
   -3.5086   -1.7614   -0.4193 C   0  0  0  0  0  0  0  0  0  0  0  0
   -3.2562   -2.8808    0.5619 C   0  0  0  0  0  0  0  0  0  0  0  0
   -4.3128   -3.7114    0.9609 C   0  0  0  0  0  0  0  0  0  0  0  0
   -4.0994   -4.7229    1.8970 C   0  0  0  0  0  0  0  0  0  0  0  0
   -2.8327   -4.9092    2.4464 C   0  0  0  0  0  0  0  0  0  0  0  0
   -1.7763   -4.0820    2.0628 C   0  0  0  0  0  0  0  0  0  0  0  0
   -1.9777   -3.0540    1.1285 C   0  0  0  0  0  0  0  0  0  0  0  0
   -0.7967   -2.2046    0.6899 C   0  0  0  0  0  0  0  0  0  0  0  0
   -0.1709    1.2074   -0.4335 C   0  0  0  0  0  0  0  0  0  0  0  0
   -1.3701    4.7417    0.2168 C   0  0  0  0  0  0  0  0  0  0  0  0
   -4.5482    5.4645    1.4390 H   0  0  0  0  0  0  0  0  0  0  0  0
   -3.4100    6.5392    0.6152 H   0  0  0  0  0  0  0  0  0  0  0  0
   -3.0034    5.8731    2.2061 H   0  0  0  0  0  0  0  0  0  0  0  0
   -3.3913    4.2441   -0.3627 H   0  0  0  0  0  0  0  0  0  0  0  0
   -3.9932    3.0115    1.7510 H   0  0  0  0  0  0  0  0  0  0  0  0
   -2.3881    3.3565    2.3922 H   0  0  0  0  0  0  0  0  0  0  0  0
   -2.2914    1.1373    1.5008 H   0  0  0  0  0  0  0  0  0  0  0  0
   -3.1354    1.5976    0.0148 H   0  0  0  0  0  0  0  0  0  0  0  0
    2.7486   -1.8620   -2.3589 H   0  0  0  0  0  0  0  0  0  0  0  0
    3.5549   -0.3813   -2.8623 H   0  0  0  0  0  0  0  0  0  0  0  0
    4.2137    0.5234    0.2735 H   0  0  0  0  0  0  0  0  0  0  0  0
    4.8893    0.8103   -1.3452 H   0  0  0  0  0  0  0  0  0  0  0  0
    6.2549   -0.8576    0.8345 H   0  0  0  0  0  0  0  0  0  0  0  0
    6.6655    0.7984    0.3875 H   0  0  0  0  0  0  0  0  0  0  0  0
    7.2107   -2.1457   -2.3720 H   0  0  0  0  0  0  0  0  0  0  0  0
    6.2544   -0.7479   -2.8637 H   0  0  0  0  0  0  0  0  0  0  0  0
    4.8162   -2.7664   -2.2793 H   0  0  0  0  0  0  0  0  0  0  0  0
    5.5062   -2.7582   -0.6690 H   0  0  0  0  0  0  0  0  0  0  0  0
   -2.4521   -0.3058   -1.5926 H   0  0  0  0  0  0  0  0  0  0  0  0
   -1.8032   -1.9440   -1.7503 H   0  0  0  0  0  0  0  0  0  0  0  0
   -4.1679   -2.1058   -1.2250 H   0  0  0  0  0  0  0  0  0  0  0  0
   -4.0236   -0.9537    0.1176 H   0  0  0  0  0  0  0  0  0  0  0  0
   -5.3079   -3.5728    0.5447 H   0  0  0  0  0  0  0  0  0  0  0  0
   -4.9223   -5.3661    2.1995 H   0  0  0  0  0  0  0  0  0  0  0  0
   -2.6671   -5.6996    3.1739 H   0  0  0  0  0  0  0  0  0  0  0  0
   -0.7912   -4.2427    2.4959 H   0  0  0  0  0  0  0  0  0  0  0  0
   -0.1922   -1.9545    1.5713 H   0  0  0  0  0  0  0  0  0  0  0  0
   -0.1953   -2.8228    0.0094 H   0  0  0  0  0  0  0  0  0  0  0  0
   -1.3310    5.4836   -0.5892 H   0  0  0  0  0  0  0  0  0  0  0  0
   -0.8564    5.1730    1.0862 H   0  0  0  0  0  0  0  0  0  0  0  0
  1  2  1  0
  2  3  1  0
  3  4  1  0
  4  5  1  0
  5  6  2  0
  6  7  1  0
  7  8  1  0
  8  9  2  0
  9 10  1  0
 10 11  1  0
 11 12  1  0
 12 13  1  0
 13 14  1  0
 14 15  1  0
 15 16  1  0
 16 17  1  0
 10 18  2  0
 18 19  1  0
 19 20  1  0
 20 21  1  0
 21 22  1  0
 22 23  1  0
 23 24  2  0
 24 25  1  0
 25 26  2  0
 26 27  1  0
 27 28  2  0
 28 29  1  0
 19 30  2  0
  6 31  1  0
 31  2  1  0
 30  5  1  0
 30  8  1  0
 17 12  1  0
 29 20  1  0
 28 23  1  0
  1 32  1  0
  1 33  1  0
  1 34  1  0
  2 35  1  0
  3 36  1  0
  3 37  1  0
  4 38  1  0
  4 39  1  0
 11 40  1  0
 11 41  1  0
 13 42  1  0
 13 43  1  0
 14 44  1  0
 14 45  1  0
 16 46  1  0
 16 47  1  0
 17 48  1  0
 17 49  1  0
 21 50  1  0
 21 51  1  0
 22 52  1  0
 22 53  1  0
 24 54  1  0
 25 55  1  0
 26 56  1  0
 27 57  1  0
 29 58  1  0
 29 59  1  0
 31 60  1  0
 31 61  1  0
M  END
$$$$
