
     RDKit          3D

 40 42  0  0  0  0  0  0  0  0999 V2000
   -2.0631   -1.8073    0.7240 O   0  0  0  0  0  0  0  0  0  0  0  0
   -1.6068   -0.8568    0.0876 C   0  0  0  0  0  0  0  0  0  0  0  0
   -2.4987    0.0975   -0.7012 C   0  0  0  0  0  0  0  0  0  0  0  0
   -3.9714   -0.0116   -0.3754 C   0  0  0  0  0  0  0  0  0  0  0  0
   -4.7914   -0.9052   -1.0797 C   0  0  0  0  0  0  0  0  0  0  0  0
   -6.1498   -1.0118   -0.7734 C   0  0  0  0  0  0  0  0  0  0  0  0
   -6.6925   -0.2291    0.2431 C   0  0  0  0  0  0  0  0  0  0  0  0
   -8.5314   -0.3729    0.6582 Br  0  0  0  0  0  0  0  0  0  0  0  0
   -5.8892    0.6556    0.9591 C   0  0  0  0  0  0  0  0  0  0  0  0
   -4.5307    0.7615    0.6527 C   0  0  0  0  0  0  0  0  0  0  0  0
   -0.2394   -0.6098    0.0427 N   0  0  0  0  0  0  0  0  0  0  0  0
    0.4088    0.4462   -0.7435 C   0  0  0  0  0  0  0  0  0  0  0  0
    1.8507    0.0993   -1.1687 C   0  0  0  0  0  0  0  0  0  0  0  0
    2.6798   -0.3540   -0.0417 N   0  0  0  0  0  0  0  0  0  0  0  0
    3.9391    0.2140    0.1316 C   0  0  0  0  0  0  0  0  0  0  0  0
    4.7789    0.4440   -0.9604 C   0  0  0  0  0  0  0  0  0  0  0  0
    6.0446    0.9988   -0.7696 C   0  0  0  0  0  0  0  0  0  0  0  0
    6.4597    1.3089    0.5145 C   0  0  0  0  0  0  0  0  0  0  0  0
    5.5876    1.0406    1.5509 C   0  0  0  0  0  0  0  0  0  0  0  0
    4.3577    0.5037    1.3837 N   0  0  0  0  0  0  0  0  0  0  0  0
    1.9776   -0.7374    1.1944 C   0  0  0  0  0  0  0  0  0  0  0  0
    0.6493   -1.4382    0.8670 C   0  0  0  0  0  0  0  0  0  0  0  0
   -2.1823    1.1303   -0.5124 H   0  0  0  0  0  0  0  0  0  0  0  0
   -2.3521   -0.0993   -1.7701 H   0  0  0  0  0  0  0  0  0  0  0  0
   -4.3744   -1.5336   -1.8637 H   0  0  0  0  0  0  0  0  0  0  0  0
   -6.7703   -1.7118   -1.3261 H   0  0  0  0  0  0  0  0  0  0  0  0
   -6.3070    1.2601    1.7595 H   0  0  0  0  0  0  0  0  0  0  0  0
   -3.9109    1.4462    1.2273 H   0  0  0  0  0  0  0  0  0  0  0  0
    0.4139    1.3441   -0.1137 H   0  0  0  0  0  0  0  0  0  0  0  0
   -0.1825    0.6714   -1.6355 H   0  0  0  0  0  0  0  0  0  0  0  0
    1.8202   -0.7097   -1.9086 H   0  0  0  0  0  0  0  0  0  0  0  0
    2.2683    0.9831   -1.6659 H   0  0  0  0  0  0  0  0  0  0  0  0
    4.4699    0.1690   -1.9629 H   0  0  0  0  0  0  0  0  0  0  0  0
    6.6990    1.1735   -1.6183 H   0  0  0  0  0  0  0  0  0  0  0  0
    7.4367    1.7370    0.7048 H   0  0  0  0  0  0  0  0  0  0  0  0
    5.8596    1.2532    2.5806 H   0  0  0  0  0  0  0  0  0  0  0  0
    2.5946   -1.4259    1.7848 H   0  0  0  0  0  0  0  0  0  0  0  0
    1.7712    0.1524    1.8039 H   0  0  0  0  0  0  0  0  0  0  0  0
    0.1391   -1.7179    1.7952 H   0  0  0  0  0  0  0  0  0  0  0  0
    0.8376   -2.3580    0.2998 H   0  0  0  0  0  0  0  0  0  0  0  0
  1  2  2  0
  2  3  1  0
  3  4  1  0
  4  5  2  0
  5  6  1  0
  6  7  2  0
  7  8  1  0
  7  9  1  0
  9 10  2  0
  2 11  1  0
 11 12  1  0
 12 13  1  0
 13 14  1  0
 14 15  1  0
 15 16  2  0
 16 17  1  0
 17 18  2  0
 18 19  1  0
 19 20  2  0
 14 21  1  0
 21 22  1  0
 10  4  1  0
 22 11  1  0
 20 15  1  0
  3 23  1  0
  3 24  1  0
  5 25  1  0
  6 26  1  0
  9 27  1  0
 10 28  1  0
 12 29  1  0
 12 30  1  0
 13 31  1  0
 13 32  1  0
 16 33  1  0
 17 34  1  0
 18 35  1  0
 19 36  1  0
 21 37  1  0
 21 38  1  0
 22 39  1  0
 22 40  1  0
M  END
$$$$
