
     RDKit          3D

 44 45  0  0  0  0  0  0  0  0999 V2000
    6.2231    1.3837   -1.8641 C   0  0  0  0  0  0  0  0  0  0  0  0
    5.7896    0.2172   -1.0176 C   0  0  0  0  0  0  0  0  0  0  0  0
    6.5705   -0.6614   -0.6678 O   0  0  0  0  0  0  0  0  0  0  0  0
    4.4573    0.2361   -0.6746 N   0  0  0  0  0  0  0  0  0  0  0  0
    3.9195   -0.7300    0.2698 C   0  0  0  0  0  0  0  0  0  0  0  0
    2.3992   -0.8306    0.1711 C   0  0  0  0  0  0  0  0  0  0  0  0
    1.8462    0.4430    0.5142 O   0  0  0  0  0  0  0  0  0  0  0  0
    0.4699    0.4831    0.4294 C   0  0  0  0  0  0  0  0  0  0  0  0
   -0.0502    1.6742    0.6715 N   0  0  0  0  0  0  0  0  0  0  0  0
   -1.3721    1.7382    0.6076 C   0  0  0  0  0  0  0  0  0  0  0  0
   -2.0004    2.9687    0.8297 N   0  0  0  0  0  0  0  0  0  0  0  0
   -3.4007    2.8700    1.2123 C   0  0  0  0  0  0  0  0  0  0  0  0
   -1.1928    3.9378    1.5556 C   0  0  0  0  0  0  0  0  0  0  0  0
   -2.1247    0.6804    0.3090 N   0  0  0  0  0  0  0  0  0  0  0  0
   -1.5171   -0.4778    0.0712 C   0  0  0  0  0  0  0  0  0  0  0  0
   -2.2883   -1.5887   -0.2171 N   0  0  0  0  0  0  0  0  0  0  0  0
   -3.6641   -1.3962   -0.6912 C   0  0  0  0  0  0  0  0  0  0  0  0
   -3.8680   -2.1270   -2.0288 C   0  0  0  0  0  0  0  0  0  0  0  0
   -3.6040   -3.5375   -1.9683 O   0  0  0  0  0  0  0  0  0  0  0  0
   -2.6227   -3.8950   -0.9826 C   0  0  0  0  0  0  0  0  0  0  0  0
   -1.5971   -2.7858   -0.7047 C   0  0  0  0  0  0  0  0  0  0  0  0
   -0.2012   -0.6198    0.1313 N   0  0  0  0  0  0  0  0  0  0  0  0
    5.3656    1.9194   -2.2808 H   0  0  0  0  0  0  0  0  0  0  0  0
    6.8106    2.0720   -1.2511 H   0  0  0  0  0  0  0  0  0  0  0  0
    6.8323    1.0161   -2.6945 H   0  0  0  0  0  0  0  0  0  0  0  0
    3.9639    1.1189   -0.7458 H   0  0  0  0  0  0  0  0  0  0  0  0
    4.2178   -0.3909    1.2681 H   0  0  0  0  0  0  0  0  0  0  0  0
    4.3765   -1.7079    0.0852 H   0  0  0  0  0  0  0  0  0  0  0  0
    2.1176   -1.1043   -0.8538 H   0  0  0  0  0  0  0  0  0  0  0  0
    2.0497   -1.5961    0.8745 H   0  0  0  0  0  0  0  0  0  0  0  0
   -3.9982    2.3761    0.4374 H   0  0  0  0  0  0  0  0  0  0  0  0
   -3.8309    3.8697    1.3414 H   0  0  0  0  0  0  0  0  0  0  0  0
   -3.5201    2.3307    2.1592 H   0  0  0  0  0  0  0  0  0  0  0  0
   -0.2664    4.1747    1.0198 H   0  0  0  0  0  0  0  0  0  0  0  0
   -0.9473    3.5806    2.5625 H   0  0  0  0  0  0  0  0  0  0  0  0
   -1.7374    4.8831    1.6609 H   0  0  0  0  0  0  0  0  0  0  0  0
   -3.9397   -0.3449   -0.8275 H   0  0  0  0  0  0  0  0  0  0  0  0
   -4.3406   -1.8191    0.0609 H   0  0  0  0  0  0  0  0  0  0  0  0
   -3.2139   -1.7005   -2.7985 H   0  0  0  0  0  0  0  0  0  0  0  0
   -4.8999   -2.0023   -2.3723 H   0  0  0  0  0  0  0  0  0  0  0  0
   -2.1159   -4.7984   -1.3368 H   0  0  0  0  0  0  0  0  0  0  0  0
   -3.1584   -4.1592   -0.0632 H   0  0  0  0  0  0  0  0  0  0  0  0
   -0.8780   -3.1472    0.0396 H   0  0  0  0  0  0  0  0  0  0  0  0
   -1.0591   -2.5532   -1.6327 H   0  0  0  0  0  0  0  0  0  0  0  0
  1  2  1  0
  2  3  2  0
  2  4  1  0
  4  5  1  0
  5  6  1  0
  6  7  1  0
  7  8  1  0
  8  9  2  0
  9 10  1  0
 10 11  1  0
 11 12  1  0
 11 13  1  0
 10 14  2  0
 14 15  1  0
 15 16  1  0
 16 17  1  0
 17 18  1  0
 18 19  1  0
 19 20  1  0
 20 21  1  0
 15 22  2  0
 22  8  1  0
 21 16  1  0
  1 23  1  0
  1 24  1  0
  1 25  1  0
  4 26  1  0
  5 27  1  0
  5 28  1  0
  6 29  1  0
  6 30  1  0
 12 31  1  0
 12 32  1  0
 12 33  1  0
 13 34  1  0
 13 35  1  0
 13 36  1  0
 17 37  1  0
 17 38  1  0
 18 39  1  0
 18 40  1  0
 20 41  1  0
 20 42  1  0
 21 43  1  0
 21 44  1  0
M  END
$$$$
