
     RDKit          3D

 53 56  0  0  0  0  0  0  0  0999 V2000
    1.9665   -3.3751    1.5370 O   0  0  0  0  0  0  0  0  0  0  0  0
    1.3844   -2.4816    0.9169 C   0  0  0  0  0  0  0  0  0  0  0  0
   -0.0138   -2.7369    0.3786 C   0  0  0  0  0  0  0  0  0  0  0  0
   -0.9646   -3.1967    1.4805 C   0  0  0  0  0  0  0  0  0  0  0  0
   -1.4689   -1.8410    2.5929 S   0  0  0  0  0  0  0  0  0  0  0  0
   -2.6088   -1.0160    1.5218 C   0  0  0  0  0  0  0  0  0  0  0  0
   -3.7590   -1.6311    1.2328 N   0  0  0  0  0  0  0  0  0  0  0  0
   -4.6093   -0.9712    0.4214 C   0  0  0  0  0  0  0  0  0  0  0  0
   -5.8552   -1.6744    0.1492 C   0  0  0  0  0  0  0  0  0  0  0  0
   -6.3807   -2.8834    0.5643 C   0  0  0  0  0  0  0  0  0  0  0  0
   -7.6472   -3.0121   -0.0548 C   0  0  0  0  0  0  0  0  0  0  0  0
   -7.8190   -1.8768   -0.8108 C   0  0  0  0  0  0  0  0  0  0  0  0
   -6.7399   -1.0599   -0.6953 O   0  0  0  0  0  0  0  0  0  0  0  0
   -4.3247    0.2676   -0.1149 C   0  0  0  0  0  0  0  0  0  0  0  0
   -3.1000    0.8165    0.2139 C   0  0  0  0  0  0  0  0  0  0  0  0
   -2.7155    2.1756   -0.3433 C   0  0  0  0  0  0  0  0  0  0  0  0
   -3.1920    2.3801   -1.6062 F   0  0  0  0  0  0  0  0  0  0  0  0
   -3.1975    3.2069    0.4052 F   0  0  0  0  0  0  0  0  0  0  0  0
   -1.3662    2.3641   -0.4274 F   0  0  0  0  0  0  0  0  0  0  0  0
   -2.2361    0.1789    1.0432 N   0  0  0  0  0  0  0  0  0  0  0  0
    1.9859   -1.2659    0.6495 N   0  0  0  0  0  0  0  0  0  0  0  0
    3.3676   -1.0427    1.0817 C   0  0  0  0  0  0  0  0  0  0  0  0
    4.1720   -0.2062    0.0697 C   0  0  0  0  0  0  0  0  0  0  0  0
    3.4995    1.0632   -0.2707 N   0  0  0  0  0  0  0  0  0  0  0  0
    4.2581    2.1601   -0.6618 C   0  0  0  0  0  0  0  0  0  0  0  0
    5.4931    1.9992   -1.3144 C   0  0  0  0  0  0  0  0  0  0  0  0
    6.2670    3.0917   -1.7254 C   0  0  0  0  0  0  0  0  0  0  0  0
    5.8203    4.3865   -1.4962 C   0  0  0  0  0  0  0  0  0  0  0  0
    4.6017    4.5826   -0.8585 C   0  0  0  0  0  0  0  0  0  0  0  0
    3.8343    3.4829   -0.4521 C   0  0  0  0  0  0  0  0  0  0  0  0
    2.0966    1.2082    0.1470 C   0  0  0  0  0  0  0  0  0  0  0  0
    1.3287   -0.1213    0.0101 C   0  0  0  0  0  0  0  0  0  0  0  0
    0.0969   -3.5527   -0.3488 H   0  0  0  0  0  0  0  0  0  0  0  0
   -0.4280   -1.9014   -0.1872 H   0  0  0  0  0  0  0  0  0  0  0  0
   -1.8573   -3.6503    1.0367 H   0  0  0  0  0  0  0  0  0  0  0  0
   -0.4954   -3.9682    2.1009 H   0  0  0  0  0  0  0  0  0  0  0  0
   -5.8985   -3.5813    1.2360 H   0  0  0  0  0  0  0  0  0  0  0  0
   -8.3477   -3.8302    0.0387 H   0  0  0  0  0  0  0  0  0  0  0  0
   -8.6110   -1.5182   -1.4540 H   0  0  0  0  0  0  0  0  0  0  0  0
   -5.0226    0.7814   -0.7673 H   0  0  0  0  0  0  0  0  0  0  0  0
    3.8794   -1.9956    1.2534 H   0  0  0  0  0  0  0  0  0  0  0  0
    3.3161   -0.5205    2.0454 H   0  0  0  0  0  0  0  0  0  0  0  0
    5.1610   -0.0226    0.5063 H   0  0  0  0  0  0  0  0  0  0  0  0
    4.3053   -0.7859   -0.8509 H   0  0  0  0  0  0  0  0  0  0  0  0
    5.8702    1.0052   -1.5393 H   0  0  0  0  0  0  0  0  0  0  0  0
    7.2146    2.9231   -2.2296 H   0  0  0  0  0  0  0  0  0  0  0  0
    6.4168    5.2370   -1.8134 H   0  0  0  0  0  0  0  0  0  0  0  0
    4.2412    5.5909   -0.6716 H   0  0  0  0  0  0  0  0  0  0  0  0
    2.8981    3.6929    0.0568 H   0  0  0  0  0  0  0  0  0  0  0  0
    1.5739    1.9482   -0.4711 H   0  0  0  0  0  0  0  0  0  0  0  0
    2.0632    1.5487    1.1895 H   0  0  0  0  0  0  0  0  0  0  0  0
    0.3337    0.0032    0.4409 H   0  0  0  0  0  0  0  0  0  0  0  0
    1.2131   -0.3753   -1.0499 H   0  0  0  0  0  0  0  0  0  0  0  0
  1  2  2  0
  2  3  1  0
  3  4  1  0
  4  5  1  0
  5  6  1  0
  6  7  2  0
  7  8  1  0
  8  9  1  0
  9 10  2  0
 10 11  1  0
 11 12  2  0
 12 13  1  0
  8 14  2  0
 14 15  1  0
 15 16  1  0
 16 17  1  0
 16 18  1  0
 16 19  1  0
 15 20  2  0
  2 21  1  0
 21 22  1  0
 22 23  1  0
 23 24  1  0
 24 25  1  0
 25 26  2  0
 26 27  1  0
 27 28  2  0
 28 29  1  0
 29 30  2  0
 24 31  1  0
 31 32  1  0
 20  6  1  0
 32 21  1  0
 13  9  1  0
 30 25  1  0
  3 33  1  0
  3 34  1  0
  4 35  1  0
  4 36  1  0
 10 37  1  0
 11 38  1  0
 12 39  1  0
 14 40  1  0
 22 41  1  0
 22 42  1  0
 23 43  1  0
 23 44  1  0
 26 45  1  0
 27 46  1  0
 28 47  1  0
 29 48  1  0
 30 49  1  0
 31 50  1  0
 31 51  1  0
 32 52  1  0
 32 53  1  0
M  END
$$$$
