
     RDKit          3D

 51 54  0  0  0  0  0  0  0  0999 V2000
    1.5407   -2.8501   -1.6707 O   0  0  0  0  0  0  0  0  0  0  0  0
    1.5665   -1.7366   -1.1395 C   0  0  0  0  0  0  0  0  0  0  0  0
    2.8147   -1.0763   -0.8034 C   0  0  0  0  0  0  0  0  0  0  0  0
    3.3062    0.1340   -1.2615 C   0  0  0  0  0  0  0  0  0  0  0  0
    4.5810    0.4473   -0.6996 C   0  0  0  0  0  0  0  0  0  0  0  0
    5.0046   -0.5463    0.1643 C   0  0  0  0  0  0  0  0  0  0  0  0
    3.9042   -1.8410    0.2734 S   0  0  0  0  0  0  0  0  0  0  0  0
    6.3070   -0.5455    0.9054 C   0  0  0  0  0  0  0  0  0  0  0  0
    6.9070    0.8702    0.9224 C   0  0  0  0  0  0  0  0  0  0  0  0
    6.8398    1.5313   -0.4632 C   0  0  0  0  0  0  0  0  0  0  0  0
    5.3907    1.6832   -0.9555 C   0  0  0  0  0  0  0  0  0  0  0  0
    0.3772   -1.0290   -0.8799 N   0  0  0  0  0  0  0  0  0  0  0  0
   -0.8760   -1.7234   -1.1912 C   0  0  0  0  0  0  0  0  0  0  0  0
   -2.0711   -0.7686   -1.3403 C   0  0  0  0  0  0  0  0  0  0  0  0
   -2.1765    0.2035   -0.2088 N   0  0  0  0  0  0  0  0  0  0  0  0
   -2.9544   -0.3160    1.2051 S   0  0  0  0  0  6  0  0  0  0  0  0
   -2.8699    0.7219    2.2059 O   0  0  0  0  0  0  0  0  0  0  0  0
   -2.4899   -1.6554    1.4956 O   0  0  0  0  0  0  0  0  0  0  0  0
   -4.6604   -0.4147    0.6879 C   0  0  0  0  0  0  0  0  0  0  0  0
   -5.2120   -1.6945    0.5045 C   0  0  0  0  0  0  0  0  0  0  0  0
   -6.5448   -1.8377    0.1224 C   0  0  0  0  0  0  0  0  0  0  0  0
   -7.3355   -0.7098   -0.0666 C   0  0  0  0  0  0  0  0  0  0  0  0
   -6.7952    0.5630    0.1294 C   0  0  0  0  0  0  0  0  0  0  0  0
   -5.4472    0.7399    0.5087 C   0  0  0  0  0  0  0  0  0  0  0  0
   -4.9435    2.1486    0.7388 C   0  0  0  0  0  0  0  0  0  0  0  0
   -4.8836    2.4827    2.0547 F   0  0  0  0  0  0  0  0  0  0  0  0
   -3.7242    2.4087    0.1996 F   0  0  0  0  0  0  0  0  0  0  0  0
   -5.7703    3.0855    0.1774 F   0  0  0  0  0  0  0  0  0  0  0  0
   -0.8861    0.9266   -0.0026 C   0  0  0  0  0  0  0  0  0  0  0  0
    0.2795   -0.0452    0.2105 C   0  0  0  0  0  0  0  0  0  0  0  0
    2.7743    0.7598   -1.9691 H   0  0  0  0  0  0  0  0  0  0  0  0
    7.0037   -1.2281    0.3996 H   0  0  0  0  0  0  0  0  0  0  0  0
    6.1775   -0.9015    1.9360 H   0  0  0  0  0  0  0  0  0  0  0  0
    6.3613    1.4922    1.6441 H   0  0  0  0  0  0  0  0  0  0  0  0
    7.9479    0.8206    1.2638 H   0  0  0  0  0  0  0  0  0  0  0  0
    7.4074    0.9227   -1.1781 H   0  0  0  0  0  0  0  0  0  0  0  0
    7.3185    2.5159   -0.4321 H   0  0  0  0  0  0  0  0  0  0  0  0
    4.9162    2.5259   -0.4356 H   0  0  0  0  0  0  0  0  0  0  0  0
    5.3930    1.9192   -2.0273 H   0  0  0  0  0  0  0  0  0  0  0  0
   -0.7613   -2.2898   -2.1226 H   0  0  0  0  0  0  0  0  0  0  0  0
   -1.0477   -2.4541   -0.3940 H   0  0  0  0  0  0  0  0  0  0  0  0
   -2.9994   -1.3360   -1.4556 H   0  0  0  0  0  0  0  0  0  0  0  0
   -1.9554   -0.1825   -2.2611 H   0  0  0  0  0  0  0  0  0  0  0  0
   -4.6124   -2.5898    0.6626 H   0  0  0  0  0  0  0  0  0  0  0  0
   -6.9684   -2.8298   -0.0181 H   0  0  0  0  0  0  0  0  0  0  0  0
   -8.3786   -0.8185   -0.3584 H   0  0  0  0  0  0  0  0  0  0  0  0
   -7.4432    1.4297   -0.0098 H   0  0  0  0  0  0  0  0  0  0  0  0
   -0.9619    1.6286    0.8353 H   0  0  0  0  0  0  0  0  0  0  0  0
   -0.7017    1.5394   -0.8959 H   0  0  0  0  0  0  0  0  0  0  0  0
    1.2015    0.5300    0.3132 H   0  0  0  0  0  0  0  0  0  0  0  0
    0.1502   -0.6102    1.1419 H   0  0  0  0  0  0  0  0  0  0  0  0
  1  2  2  0
  2  3  1  0
  3  4  2  0
  4  5  1  0
  5  6  2  0
  6  7  1  0
  6  8  1  0
  8  9  1  0
  9 10  1  0
 10 11  1  0
  2 12  1  0
 12 13  1  0
 13 14  1  0
 14 15  1  0
 15 16  1  0
 16 17  2  0
 16 18  2  0
 16 19  1  0
 19 20  2  0
 20 21  1  0
 21 22  2  0
 22 23  1  0
 23 24  2  0
 24 25  1  0
 25 26  1  0
 25 27  1  0
 25 28  1  0
 15 29  1  0
 29 30  1  0
  7  3  1  0
 30 12  1  0
 11  5  1  0
 24 19  1  0
  4 31  1  0
  8 32  1  0
  8 33  1  0
  9 34  1  0
  9 35  1  0
 10 36  1  0
 10 37  1  0
 11 38  1  0
 11 39  1  0
 13 40  1  0
 13 41  1  0
 14 42  1  0
 14 43  1  0
 20 44  1  0
 21 45  1  0
 22 46  1  0
 23 47  1  0
 29 48  1  0
 29 49  1  0
 30 50  1  0
 30 51  1  0
M  END
$$$$
