
     RDKit          3D

 72 74  0  0  0  0  0  0  0  0999 V2000
    9.3695    3.6884   -0.1970 C   0  0  0  0  0  0  0  0  0  0  0  0
    8.0640    2.9183   -0.0600 C   0  0  0  0  0  0  0  0  0  0  0  0
    8.2455    1.6648    0.7966 C   0  0  0  0  0  0  0  0  0  0  0  0
    6.9366    0.9187    1.0706 C   0  0  0  0  0  0  0  0  0  0  0  0
    6.3078    0.3057   -0.1834 C   0  0  0  0  0  0  0  0  0  0  0  0
    5.0811   -0.5392    0.1741 C   0  0  0  0  0  0  0  0  0  0  0  0
    4.4557   -1.1731   -1.0709 C   0  0  0  0  0  0  0  0  0  0  0  0
    3.3415   -2.1729   -0.7446 C   0  0  0  0  0  0  0  0  0  0  0  0
    2.1327   -1.6013   -0.0021 C   0  0  0  0  0  0  0  0  0  0  0  0
    1.3599   -0.5588   -0.8064 C   0  0  0  0  0  0  0  0  0  0  0  0
    0.2151   -0.1079   -0.0566 O   0  0  0  0  0  0  0  0  0  0  0  0
   -0.9012   -0.8847   -0.1358 C   0  0  0  0  0  0  0  0  0  0  0  0
   -1.0077   -1.9153   -0.7905 O   0  0  0  0  0  0  0  0  0  0  0  0
   -2.0152   -0.2864    0.7134 C   0  0  0  0  0  0  0  0  0  0  0  0
   -3.1463   -1.2335    0.8998 N   0  0  0  0  0  0  0  0  0  0  0  0
   -3.9236   -1.7214   -0.1021 C   0  0  0  0  0  0  0  0  0  0  0  0
   -3.9239   -1.3175   -1.5717 C   0  0  0  0  0  0  0  0  0  0  0  0
   -3.5966    0.0498   -1.7894 O   0  0  0  0  0  0  0  0  0  0  0  0
   -4.5820    0.9813   -1.6092 C   0  0  0  0  0  0  0  0  0  0  0  0
   -5.8368    0.7599   -1.0408 C   0  0  0  0  0  0  0  0  0  0  0  0
   -6.7392    1.8188   -0.9066 C   0  0  0  0  0  0  0  0  0  0  0  0
   -6.3909    3.1003   -1.3317 C   0  0  0  0  0  0  0  0  0  0  0  0
   -5.1306    3.3404   -1.8855 C   0  0  0  0  0  0  0  0  0  0  0  0
   -4.7658    4.7093   -2.3821 C   0  0  0  0  0  0  0  0  0  0  0  0
   -4.2372    2.2708   -2.0282 C   0  0  0  0  0  0  0  0  0  0  0  0
   -4.7380   -2.6548    0.4517 N   0  0  0  0  0  4  0  0  0  0  0  0
   -5.6657   -3.5002   -0.2990 C   0  0  0  0  0  0  0  0  0  0  0  0
   -4.5628   -2.6862    1.8308 C   0  0  0  0  0  0  0  0  0  0  0  0
   -5.2031   -3.4251    2.8249 C   0  0  0  0  0  0  0  0  0  0  0  0
   -4.7611   -3.2120    4.1365 C   0  0  0  0  0  0  0  0  0  0  0  0
   -3.7270   -2.3042    4.4275 C   0  0  0  0  0  0  0  0  0  0  0  0
   -3.0889   -1.5664    3.4213 C   0  0  0  0  0  0  0  0  0  0  0  0
   -3.5385   -1.7807    2.1184 C   0  0  0  0  0  0  0  0  0  0  0  0
    9.2204    4.5818   -0.8113 H   0  0  0  0  0  0  0  0  0  0  0  0
    9.7417    4.0086    0.7813 H   0  0  0  0  0  0  0  0  0  0  0  0
   10.1397    3.0728   -0.6729 H   0  0  0  0  0  0  0  0  0  0  0  0
    7.7096    2.6478   -1.0604 H   0  0  0  0  0  0  0  0  0  0  0  0
    7.3069    3.5711    0.3899 H   0  0  0  0  0  0  0  0  0  0  0  0
    8.6834    1.9506    1.7613 H   0  0  0  0  0  0  0  0  0  0  0  0
    8.9613    0.9870    0.3151 H   0  0  0  0  0  0  0  0  0  0  0  0
    7.1467    0.1190    1.7924 H   0  0  0  0  0  0  0  0  0  0  0  0
    6.2195    1.5964    1.5501 H   0  0  0  0  0  0  0  0  0  0  0  0
    6.0095    1.0966   -0.8807 H   0  0  0  0  0  0  0  0  0  0  0  0
    7.0480   -0.3201   -0.6967 H   0  0  0  0  0  0  0  0  0  0  0  0
    5.3743   -1.3277    0.8784 H   0  0  0  0  0  0  0  0  0  0  0  0
    4.3447    0.0942    0.6820 H   0  0  0  0  0  0  0  0  0  0  0  0
    4.0803   -0.3905   -1.7409 H   0  0  0  0  0  0  0  0  0  0  0  0
    5.2352   -1.7092   -1.6283 H   0  0  0  0  0  0  0  0  0  0  0  0
    3.7643   -2.9858   -0.1407 H   0  0  0  0  0  0  0  0  0  0  0  0
    2.9995   -2.6321   -1.6808 H   0  0  0  0  0  0  0  0  0  0  0  0
    2.4314   -1.1763    0.9631 H   0  0  0  0  0  0  0  0  0  0  0  0
    1.4613   -2.4313    0.2517 H   0  0  0  0  0  0  0  0  0  0  0  0
    1.9797    0.3254   -0.9842 H   0  0  0  0  0  0  0  0  0  0  0  0
    1.0520   -0.9431   -1.7858 H   0  0  0  0  0  0  0  0  0  0  0  0
   -1.5950   -0.0404    1.6924 H   0  0  0  0  0  0  0  0  0  0  0  0
   -2.3849    0.6351    0.2625 H   0  0  0  0  0  0  0  0  0  0  0  0
   -4.8916   -1.5802   -2.0090 H   0  0  0  0  0  0  0  0  0  0  0  0
   -3.1632   -1.9455   -2.0419 H   0  0  0  0  0  0  0  0  0  0  0  0
   -6.1620   -0.2115   -0.6904 H   0  0  0  0  0  0  0  0  0  0  0  0
   -7.7234    1.6484   -0.4741 H   0  0  0  0  0  0  0  0  0  0  0  0
   -7.1102    3.9112   -1.2318 H   0  0  0  0  0  0  0  0  0  0  0  0
   -3.6890    4.8853   -2.2834 H   0  0  0  0  0  0  0  0  0  0  0  0
   -5.2773    5.4851   -1.8014 H   0  0  0  0  0  0  0  0  0  0  0  0
   -5.0466    4.8121   -3.4355 H   0  0  0  0  0  0  0  0  0  0  0  0
   -3.2627    2.4446   -2.4817 H   0  0  0  0  0  0  0  0  0  0  0  0
   -5.1955   -3.8201   -1.2334 H   0  0  0  0  0  0  0  0  0  0  0  0
   -6.5705   -2.9243   -0.5127 H   0  0  0  0  0  0  0  0  0  0  0  0
   -5.9275   -4.3922    0.2738 H   0  0  0  0  0  0  0  0  0  0  0  0
   -5.9995   -4.1239    2.6017 H   0  0  0  0  0  0  0  0  0  0  0  0
   -5.2273   -3.7633    4.9544 H   0  0  0  0  0  0  0  0  0  0  0  0
   -3.4153   -2.1717    5.4644 H   0  0  0  0  0  0  0  0  0  0  0  0
   -2.2952   -0.8682    3.6566 H   0  0  0  0  0  0  0  0  0  0  0  0
  1  2  1  0
  2  3  1  0
  3  4  1  0
  4  5  1  0
  5  6  1  0
  6  7  1  0
  7  8  1  0
  8  9  1  0
  9 10  1  0
 10 11  1  0
 11 12  1  0
 12 13  2  0
 12 14  1  0
 14 15  1  0
 15 16  1  0
 16 17  1  0
 17 18  1  0
 18 19  1  0
 19 20  2  0
 20 21  1  0
 21 22  2  0
 22 23  1  0
 23 24  1  0
 23 25  2  0
 16 26  2  0
 26 27  1  0
 26 28  1  0
 28 29  2  0
 29 30  1  0
 30 31  2  0
 31 32  1  0
 32 33  2  0
 33 15  1  0
 25 19  1  0
 33 28  1  0
  1 34  1  0
  1 35  1  0
  1 36  1  0
  2 37  1  0
  2 38  1  0
  3 39  1  0
  3 40  1  0
  4 41  1  0
  4 42  1  0
  5 43  1  0
  5 44  1  0
  6 45  1  0
  6 46  1  0
  7 47  1  0
  7 48  1  0
  8 49  1  0
  8 50  1  0
  9 51  1  0
  9 52  1  0
 10 53  1  0
 10 54  1  0
 14 55  1  0
 14 56  1  0
 17 57  1  0
 17 58  1  0
 20 59  1  0
 21 60  1  0
 22 61  1  0
 24 62  1  0
 24 63  1  0
 24 64  1  0
 25 65  1  0
 27 66  1  0
 27 67  1  0
 27 68  1  0
 29 69  1  0
 30 70  1  0
 31 71  1  0
 32 72  1  0
M  CHG  1  26   1
M  END
$$$$
