
     RDKit          3D

 57 60  0  0  0  0  0  0  0  0999 V2000
   -5.5567    2.8300   -3.4854 C   0  0  0  0  0  0  0  0  0  0  0  0
   -4.5497    1.8892   -2.8928 C   0  0  0  0  0  0  0  0  0  0  0  0
   -3.3693    2.3762   -2.3192 C   0  0  0  0  0  0  0  0  0  0  0  0
   -2.4489    1.4995   -1.7392 C   0  0  0  0  0  0  0  0  0  0  0  0
   -2.7055    0.1241   -1.7209 C   0  0  0  0  0  0  0  0  0  0  0  0
   -1.7611   -0.7705   -1.1364 N   0  0  0  0  0  0  0  0  0  0  0  0
   -1.2926   -1.9476   -1.7149 C   0  0  0  0  0  0  0  0  0  0  0  0
   -1.6841   -2.4538   -3.0602 C   0  0  0  0  0  0  0  0  0  0  0  0
   -0.3631   -2.5000   -0.8567 C   0  0  0  0  0  0  0  0  0  0  0  0
   -0.2195   -1.6411    0.2602 C   0  0  0  0  0  0  0  0  0  0  0  0
    0.7051   -1.8555    1.3597 C   0  0  0  0  0  0  0  0  0  0  0  0
    0.0639   -2.2108    2.3901 O   0  0  0  0  0  1  0  0  0  0  0  0
    2.0465   -1.6884    1.1755 C   0  0  0  0  0  0  0  0  0  0  0  0
    2.5557   -1.1545   -0.1353 C   0  0  0  0  0  0  0  0  0  0  0  0
    3.3811   -2.1378   -1.2414 S   0  0  0  0  0  0  0  0  0  0  0  0
    2.4610    0.1715   -0.4739 N   0  0  0  0  0  0  0  0  0  0  0  0
    2.0670    1.3328    0.2224 C   0  0  0  0  0  0  0  0  0  0  0  0
    1.7867    1.4075    1.5890 C   0  0  0  0  0  0  0  0  0  0  0  0
    1.4268    2.6268    2.1777 C   0  0  0  0  0  0  0  0  0  0  0  0
    1.3491    3.7777    1.4052 C   0  0  0  0  0  0  0  0  0  0  0  0
    1.0055    4.9313    1.9948 F   0  0  0  0  0  0  0  0  0  0  0  0
    1.6283    3.7240    0.0464 C   0  0  0  0  0  0  0  0  0  0  0  0
    1.5377    5.1408   -0.9265 Cl  0  0  0  0  0  0  0  0  0  0  0  0
    1.9908    2.5092   -0.5415 C   0  0  0  0  0  0  0  0  0  0  0  0
    3.0533   -2.0400    2.2846 N   0  0  0  0  0  4  0  0  0  0  0  0
    4.2597   -1.4234    2.2982 C   0  0  0  0  0  0  0  0  0  0  0  0
    5.2066   -1.7005    3.2799 C   0  0  0  0  0  0  0  0  0  0  0  0
    4.9173   -2.6320    4.2638 C   0  0  0  0  0  0  0  0  0  0  0  0
    3.6889   -3.2735    4.2363 C   0  0  0  0  0  0  0  0  0  0  0  0
    2.7722   -2.9672    3.2331 C   0  0  0  0  0  0  0  0  0  0  0  0
   -1.1301   -0.6025    0.0984 C   0  0  0  0  0  0  0  0  0  0  0  0
   -1.5258    0.4616    1.0708 C   0  0  0  0  0  0  0  0  0  0  0  0
   -3.8886   -0.3679   -2.2810 C   0  0  0  0  0  0  0  0  0  0  0  0
   -4.8074    0.5134   -2.8578 C   0  0  0  0  0  0  0  0  0  0  0  0
   -5.0913    3.7791   -3.7717 H   0  0  0  0  0  0  0  0  0  0  0  0
   -6.0017    2.4001   -4.3889 H   0  0  0  0  0  0  0  0  0  0  0  0
   -6.3496    3.0352   -2.7593 H   0  0  0  0  0  0  0  0  0  0  0  0
   -3.1536    3.4422   -2.3257 H   0  0  0  0  0  0  0  0  0  0  0  0
   -1.5222    1.9031   -1.3421 H   0  0  0  0  0  0  0  0  0  0  0  0
   -0.9469   -3.1779   -3.4243 H   0  0  0  0  0  0  0  0  0  0  0  0
   -2.6485   -2.9679   -3.0188 H   0  0  0  0  0  0  0  0  0  0  0  0
   -1.7319   -1.6472   -3.7977 H   0  0  0  0  0  0  0  0  0  0  0  0
    0.1730   -3.4244   -1.0280 H   0  0  0  0  0  0  0  0  0  0  0  0
    2.7185    0.3177   -1.4469 H   0  0  0  0  0  0  0  0  0  0  0  0
    1.8032    0.5487    2.2469 H   0  0  0  0  0  0  0  0  0  0  0  0
    1.1894    2.6761    3.2368 H   0  0  0  0  0  0  0  0  0  0  0  0
    2.2006    2.4883   -1.6086 H   0  0  0  0  0  0  0  0  0  0  0  0
    4.4624   -0.6804    1.5347 H   0  0  0  0  0  0  0  0  0  0  0  0
    6.1628   -1.1839    3.2772 H   0  0  0  0  0  0  0  0  0  0  0  0
    5.6411   -2.8605    5.0424 H   0  0  0  0  0  0  0  0  0  0  0  0
    3.4336   -4.0170    4.9862 H   0  0  0  0  0  0  0  0  0  0  0  0
    1.8314   -3.5029    3.1764 H   0  0  0  0  0  0  0  0  0  0  0  0
   -1.0974    1.4272    0.7940 H   0  0  0  0  0  0  0  0  0  0  0  0
   -2.6148    0.5636    1.1191 H   0  0  0  0  0  0  0  0  0  0  0  0
   -1.1897    0.2385    2.0866 H   0  0  0  0  0  0  0  0  0  0  0  0
   -4.1359   -1.4245   -2.2316 H   0  0  0  0  0  0  0  0  0  0  0  0
   -5.7334    0.1183   -3.2703 H   0  0  0  0  0  0  0  0  0  0  0  0
  1  2  1  0
  2  3  2  0
  3  4  1  0
  4  5  2  0
  5  6  1  0
  6  7  1  0
  7  8  1  0
  7  9  2  0
  9 10  1  0
 10 11  1  0
 11 12  1  0
 11 13  2  3
 13 14  1  0
 14 15  2  0
 14 16  1  0
 16 17  1  0
 17 18  2  0
 18 19  1  0
 19 20  2  0
 20 21  1  0
 20 22  1  0
 22 23  1  0
 22 24  2  0
 13 25  1  0
 25 26  2  0
 26 27  1  0
 27 28  2  0
 28 29  1  0
 29 30  2  0
 10 31  2  0
 31 32  1  0
  5 33  1  0
 33 34  2  0
 34  2  1  0
 31  6  1  0
 24 17  1  0
 30 25  1  0
  1 35  1  0
  1 36  1  0
  1 37  1  0
  3 38  1  0
  4 39  1  0
  8 40  1  0
  8 41  1  0
  8 42  1  0
  9 43  1  0
 16 44  1  0
 18 45  1  0
 19 46  1  0
 24 47  1  0
 26 48  1  0
 27 49  1  0
 28 50  1  0
 29 51  1  0
 30 52  1  0
 32 53  1  0
 32 54  1  0
 32 55  1  0
 33 56  1  0
 34 57  1  0
M  CHG  2  12  -1  25   1
M  END
$$$$
