
     RDKit          3D

 62 65  0  0  0  0  0  0  0  0999 V2000
   -2.6485   -0.3421   -3.2548 C   0  0  0  0  0  0  0  0  0  0  0  0
   -2.6856    0.1039   -1.8172 C   0  0  0  0  0  0  0  0  0  0  0  0
   -3.9278    0.5467   -1.3190 C   0  0  0  0  0  0  0  0  0  0  0  0
   -4.0741    0.9658    0.0032 C   0  0  0  0  0  0  0  0  0  0  0  0
   -5.2958    1.3858    0.4480 O   0  0  0  0  0  0  0  0  0  0  0  0
   -2.9936    0.9580    0.8810 C   0  0  0  0  0  0  0  0  0  0  0  0
   -3.1332    1.4079    2.3267 C   0  0  0  0  0  0  0  0  0  0  0  0
   -2.2712    2.6406    2.6146 C   0  0  0  0  0  0  0  0  0  0  0  0
   -2.8041    0.2737    3.3028 C   0  0  0  0  0  0  0  0  0  0  0  0
   -1.7540    0.5220    0.3817 C   0  0  0  0  0  0  0  0  0  0  0  0
   -1.5574    0.1064   -0.9634 C   0  0  0  0  0  0  0  0  0  0  0  0
   -0.1361   -0.3686   -1.3651 C   0  0  0  0  0  0  0  0  0  0  0  0
    0.9999    0.5097   -0.7603 C   0  0  0  0  0  0  0  0  0  0  0  0
    1.9721   -0.0573    0.1035 C   0  0  0  0  0  0  0  0  0  0  0  0
    3.0031    0.6912    0.7080 C   0  0  0  0  0  0  0  0  0  0  0  0
    3.9871    0.0213    1.6567 C   0  0  0  0  0  0  0  0  0  0  0  0
    3.3261   -0.9418    2.6511 C   0  0  0  0  0  0  0  0  0  0  0  0
    5.0852   -0.6925    0.8666 C   0  0  0  0  0  0  0  0  0  0  0  0
    3.0804    2.0468    0.3877 C   0  0  0  0  0  0  0  0  0  0  0  0
    4.0623    2.8741    0.8538 O   0  0  0  0  0  0  0  0  0  0  0  0
    2.1436    2.6417   -0.4526 C   0  0  0  0  0  0  0  0  0  0  0  0
    1.1078    1.8965   -1.0425 C   0  0  0  0  0  0  0  0  0  0  0  0
    0.1430    2.6467   -1.9265 C   0  0  0  0  0  0  0  0  0  0  0  0
    0.1063   -0.2878   -2.7994 O   0  0  0  0  0  0  0  0  0  0  0  0
    0.5633   -1.4521   -3.3353 C   0  0  0  0  0  0  0  0  0  0  0  0
    0.9339   -1.6317   -4.4778 O   0  0  0  0  0  0  0  0  0  0  0  0
    0.4502   -2.4565   -2.2946 C   0  0  0  0  0  0  0  0  0  0  0  0
    0.6902   -3.8171   -2.3943 C   0  0  0  0  0  0  0  0  0  0  0  0
    0.4484   -4.6004   -1.2665 C   0  0  0  0  0  0  0  0  0  0  0  0
   -0.0320   -4.0122   -0.0859 C   0  0  0  0  0  0  0  0  0  0  0  0
   -0.2662   -2.6342   -0.0172 C   0  0  0  0  0  0  0  0  0  0  0  0
   -0.0056   -1.8541   -1.1396 C   0  0  0  0  0  0  0  0  0  0  0  0
   -2.2672   -1.3636   -3.3320 H   0  0  0  0  0  0  0  0  0  0  0  0
   -2.0453    0.3443   -3.8558 H   0  0  0  0  0  0  0  0  0  0  0  0
   -3.6506   -0.3543   -3.6983 H   0  0  0  0  0  0  0  0  0  0  0  0
   -4.7906    0.5565   -1.9811 H   0  0  0  0  0  0  0  0  0  0  0  0
   -5.9287    1.3489   -0.2871 H   0  0  0  0  0  0  0  0  0  0  0  0
   -4.1728    1.6967    2.5228 H   0  0  0  0  0  0  0  0  0  0  0  0
   -2.4466    3.0021    3.6337 H   0  0  0  0  0  0  0  0  0  0  0  0
   -1.2009    2.4258    2.5192 H   0  0  0  0  0  0  0  0  0  0  0  0
   -2.5111    3.4566    1.9233 H   0  0  0  0  0  0  0  0  0  0  0  0
   -1.7552   -0.0345    3.2375 H   0  0  0  0  0  0  0  0  0  0  0  0
   -2.9925    0.5886    4.3348 H   0  0  0  0  0  0  0  0  0  0  0  0
   -3.4248   -0.6062    3.1025 H   0  0  0  0  0  0  0  0  0  0  0  0
   -0.9059    0.5152    1.0666 H   0  0  0  0  0  0  0  0  0  0  0  0
    1.9403   -1.1216    0.3188 H   0  0  0  0  0  0  0  0  0  0  0  0
    4.4607    0.7906    2.2780 H   0  0  0  0  0  0  0  0  0  0  0  0
    4.0540   -1.2719    3.4008 H   0  0  0  0  0  0  0  0  0  0  0  0
    2.9352   -1.8409    2.1639 H   0  0  0  0  0  0  0  0  0  0  0  0
    2.4997   -0.4546    3.1796 H   0  0  0  0  0  0  0  0  0  0  0  0
    5.6070    0.0026    0.1997 H   0  0  0  0  0  0  0  0  0  0  0  0
    4.6768   -1.5009    0.2495 H   0  0  0  0  0  0  0  0  0  0  0  0
    5.8281   -1.1282    1.5430 H   0  0  0  0  0  0  0  0  0  0  0  0
    4.8402    2.3420    1.0787 H   0  0  0  0  0  0  0  0  0  0  0  0
    2.2366    3.7065   -0.6586 H   0  0  0  0  0  0  0  0  0  0  0  0
    0.5367    3.6346   -2.1909 H   0  0  0  0  0  0  0  0  0  0  0  0
   -0.0290    2.1291   -2.8725 H   0  0  0  0  0  0  0  0  0  0  0  0
   -0.8067    2.8054   -1.4091 H   0  0  0  0  0  0  0  0  0  0  0  0
    1.0422   -4.2553   -3.3232 H   0  0  0  0  0  0  0  0  0  0  0  0
    0.6212   -5.6737   -1.3040 H   0  0  0  0  0  0  0  0  0  0  0  0
   -0.2276   -4.6366    0.7839 H   0  0  0  0  0  0  0  0  0  0  0  0
   -0.6410   -2.1933    0.9025 H   0  0  0  0  0  0  0  0  0  0  0  0
  1  2  1  0
  2  3  2  0
  3  4  1  0
  4  5  1  0
  4  6  2  0
  6  7  1  0
  7  8  1  0
  7  9  1  0
  6 10  1  0
 10 11  2  0
 11 12  1  0
 12 13  1  0
 13 14  2  0
 14 15  1  0
 15 16  1  0
 16 17  1  0
 16 18  1  0
 15 19  2  0
 19 20  1  0
 19 21  1  0
 21 22  2  0
 22 23  1  0
 12 24  1  0
 24 25  1  0
 25 26  2  0
 25 27  1  0
 27 28  2  0
 28 29  1  0
 29 30  2  0
 30 31  1  0
 31 32  2  0
 11  2  1  0
 32 12  1  0
 22 13  1  0
 32 27  1  0
  1 33  1  0
  1 34  1  0
  1 35  1  0
  3 36  1  0
  5 37  1  0
  7 38  1  0
  8 39  1  0
  8 40  1  0
  8 41  1  0
  9 42  1  0
  9 43  1  0
  9 44  1  0
 10 45  1  0
 14 46  1  0
 16 47  1  0
 17 48  1  0
 17 49  1  0
 17 50  1  0
 18 51  1  0
 18 52  1  0
 18 53  1  0
 20 54  1  0
 21 55  1  0
 23 56  1  0
 23 57  1  0
 23 58  1  0
 28 59  1  0
 29 60  1  0
 30 61  1  0
 31 62  1  0
M  END
$$$$
