
     RDKit          3D

 57 61  0  0  0  0  0  0  0  0999 V2000
    6.1183   -1.9536   -1.0817 C   0  0  0  0  0  0  0  0  0  0  0  0
    6.0686   -0.9353   -0.1312 C   0  0  0  0  0  0  0  0  0  0  0  0
    4.8932   -0.2045    0.0511 C   0  0  0  0  0  0  0  0  0  0  0  0
    3.7537   -0.4893   -0.7152 C   0  0  0  0  0  0  0  0  0  0  0  0
    2.4768    0.3092   -0.5282 C   0  0  0  0  0  0  0  0  0  0  0  0
    1.3205   -0.5344   -0.1685 N   0  0  0  0  0  0  0  0  0  0  0  0
    1.4960   -1.0776    1.1978 C   0  0  0  0  0  0  0  0  0  0  0  0
    0.3547   -1.9085    1.6950 C   0  0  0  0  0  0  0  0  0  0  0  0
   -0.4226   -1.8455    2.8347 C   0  0  0  0  0  0  0  0  0  0  0  0
   -1.3533   -2.9078    2.7435 C   0  0  0  0  0  0  0  0  0  0  0  0
   -1.0841   -3.5527    1.5594 C   0  0  0  0  0  0  0  0  0  0  0  0
   -0.0532   -2.9507    0.9131 O   0  0  0  0  0  0  0  0  0  0  0  0
    0.0123    0.1386   -0.3726 C   0  0  0  0  0  0  0  0  0  0  0  0
   -0.2303    0.5114   -1.8395 C   0  0  0  0  0  0  0  0  0  0  0  0
   -0.2290    1.8317   -2.3088 C   0  0  0  0  0  0  0  0  0  0  0  0
   -0.4618    2.0632   -3.6563 C   0  0  0  0  0  0  0  0  0  0  0  0
   -0.6890    1.0870   -4.5597 N   0  0  0  0  0  0  0  0  0  0  0  0
   -0.6630   -0.1807   -4.1007 C   0  0  0  0  0  0  0  0  0  0  0  0
   -0.4414   -0.5138   -2.7744 C   0  0  0  0  0  0  0  0  0  0  0  0
   -0.3032    1.2464    0.5984 C   0  0  0  0  0  0  0  0  0  0  0  0
    0.5124    2.1870    1.0420 N   0  0  0  0  0  0  0  0  0  0  0  0
   -0.2182    2.9711    1.8912 N   0  0  0  0  0  0  0  0  0  0  0  0
   -1.4652    2.5403    1.9771 N   0  0  0  0  0  0  0  0  0  0  0  0
   -1.5342    1.4613    1.1758 N   0  0  0  0  0  0  0  0  0  0  0  0
   -2.7770    0.7332    1.0057 C   0  0  0  0  0  0  0  0  0  0  0  0
   -3.7068    0.7487    2.2254 C   0  0  0  0  0  0  0  0  0  0  0  0
   -4.6420    1.9435    2.0306 C   0  0  0  0  0  0  0  0  0  0  0  0
   -4.4597    2.4111    0.5886 C   0  0  0  0  0  0  0  0  0  0  0  0
   -3.6545    1.3173   -0.1008 C   0  0  0  0  0  0  0  0  0  0  0  0
    3.8181   -1.5129   -1.6726 C   0  0  0  0  0  0  0  0  0  0  0  0
    4.9939   -2.2423   -1.8527 C   0  0  0  0  0  0  0  0  0  0  0  0
    7.0340   -2.5215   -1.2228 H   0  0  0  0  0  0  0  0  0  0  0  0
    6.9469   -0.7087    0.4676 H   0  0  0  0  0  0  0  0  0  0  0  0
    4.8728    0.5889    0.7948 H   0  0  0  0  0  0  0  0  0  0  0  0
    2.3196    0.8242   -1.4827 H   0  0  0  0  0  0  0  0  0  0  0  0
    2.6412    1.0967    0.2168 H   0  0  0  0  0  0  0  0  0  0  0  0
    2.3801   -1.7263    1.2253 H   0  0  0  0  0  0  0  0  0  0  0  0
    1.6797   -0.2690    1.9173 H   0  0  0  0  0  0  0  0  0  0  0  0
   -0.3209   -1.1233    3.6340 H   0  0  0  0  0  0  0  0  0  0  0  0
   -2.1176   -3.1800    3.4580 H   0  0  0  0  0  0  0  0  0  0  0  0
   -1.5083   -4.4131    1.0605 H   0  0  0  0  0  0  0  0  0  0  0  0
   -0.7425   -0.6377   -0.2096 H   0  0  0  0  0  0  0  0  0  0  0  0
   -0.0409    2.6775   -1.6542 H   0  0  0  0  0  0  0  0  0  0  0  0
   -0.4681    3.0737   -4.0557 H   0  0  0  0  0  0  0  0  0  0  0  0
   -0.8276   -0.9489   -4.8509 H   0  0  0  0  0  0  0  0  0  0  0  0
   -0.4210   -1.5577   -2.4740 H   0  0  0  0  0  0  0  0  0  0  0  0
   -2.5135   -0.3037    0.7824 H   0  0  0  0  0  0  0  0  0  0  0  0
   -4.3091   -0.1688    2.2303 H   0  0  0  0  0  0  0  0  0  0  0  0
   -3.1774    0.7901    3.1830 H   0  0  0  0  0  0  0  0  0  0  0  0
   -4.4001    2.7529    2.7279 H   0  0  0  0  0  0  0  0  0  0  0  0
   -5.6800    1.6506    2.2224 H   0  0  0  0  0  0  0  0  0  0  0  0
   -5.4181    2.5867    0.0903 H   0  0  0  0  0  0  0  0  0  0  0  0
   -3.9051    3.3565    0.5715 H   0  0  0  0  0  0  0  0  0  0  0  0
   -4.3386    0.5449   -0.4736 H   0  0  0  0  0  0  0  0  0  0  0  0
   -3.0906    1.7058   -0.9538 H   0  0  0  0  0  0  0  0  0  0  0  0
    2.9439   -1.7460   -2.2768 H   0  0  0  0  0  0  0  0  0  0  0  0
    5.0312   -3.0354   -2.5945 H   0  0  0  0  0  0  0  0  0  0  0  0
  1  2  2  0
  2  3  1  0
  3  4  2  0
  4  5  1  0
  5  6  1  0
  6  7  1  0
  7  8  1  0
  8  9  2  0
  9 10  1  0
 10 11  2  0
 11 12  1  0
  6 13  1  0
 13 14  1  0
 14 15  2  0
 15 16  1  0
 16 17  2  0
 17 18  1  0
 18 19  2  0
 13 20  1  0
 20 21  2  0
 21 22  1  0
 22 23  2  0
 23 24  1  0
 24 25  1  0
 25 26  1  0
 26 27  1  0
 27 28  1  0
 28 29  1  0
  4 30  1  0
 30 31  2  0
 31  1  1  0
 12  8  1  0
 19 14  1  0
 24 20  1  0
 29 25  1  0
  1 32  1  0
  2 33  1  0
  3 34  1  0
  5 35  1  0
  5 36  1  0
  7 37  1  0
  7 38  1  0
  9 39  1  0
 10 40  1  0
 11 41  1  0
 13 42  1  0
 15 43  1  0
 16 44  1  0
 18 45  1  0
 19 46  1  0
 25 47  1  0
 26 48  1  0
 26 49  1  0
 27 50  1  0
 27 51  1  0
 28 52  1  0
 28 53  1  0
 29 54  1  0
 29 55  1  0
 30 56  1  0
 31 57  1  0
M  END
$$$$
