
     RDKit          3D

 46 48  0  0  0  0  0  0  0  0999 V2000
   -7.5008   -1.6595    0.5159 C   0  0  0  0  0  0  0  0  0  0  0  0
   -6.2547   -2.5091    0.7281 C   0  0  0  0  0  0  0  0  0  0  0  0
   -4.9513   -1.8091    0.3402 C   0  0  0  0  0  0  0  0  0  0  0  0
   -4.5777   -0.3963    1.4346 S   0  0  0  0  0  0  0  0  0  0  0  0
   -3.0672    0.2236    0.6994 C   0  0  0  0  0  0  0  0  0  0  0  0
   -2.5220   -0.5312   -0.2896 N   0  0  0  0  0  0  0  0  0  0  0  0
   -1.3673   -0.1187   -0.8789 C   0  0  0  0  0  0  0  0  0  0  0  0
   -0.8124   -1.0293   -1.9392 C   0  0  0  0  0  0  0  0  0  0  0  0
   -0.7360    1.0745   -0.5212 C   0  0  0  0  0  0  0  0  0  0  0  0
    0.4957    1.5157   -1.1405 C   0  0  0  0  0  0  0  0  0  0  0  0
    0.5790    2.6224   -1.9552 C   0  0  0  0  0  0  0  0  0  0  0  0
    2.1971    2.8410   -2.4638 S   0  0  0  0  0  0  0  0  0  0  0  0
    2.6903    1.4408   -1.5471 C   0  0  0  0  0  0  0  0  0  0  0  0
    4.0724    1.0447   -1.5144 C   0  0  0  0  0  0  0  0  0  0  0  0
    4.8864    1.2299   -2.6779 C   0  0  0  0  0  0  0  0  0  0  0  0
    5.5541    1.3725   -3.6175 N   0  0  0  0  0  0  0  0  0  0  0  0
    4.6018    0.4778   -0.4030 C   0  0  0  0  0  0  0  0  0  0  0  0
    3.8861    0.2066    0.9041 C   0  0  0  0  0  0  0  0  0  0  0  0
    5.0100   -0.1357    1.8748 C   0  0  0  0  0  0  0  0  0  0  0  0
    6.0472   -0.8150    0.9991 C   0  0  0  0  0  0  0  0  0  0  0  0
    6.0412    0.0245   -0.2719 C   0  0  0  0  0  0  0  0  0  0  0  0
    1.6841    0.8554   -0.9157 N   0  0  0  0  0  0  0  0  0  0  0  0
   -1.3087    1.8431    0.4973 C   0  0  0  0  0  0  0  0  0  0  0  0
   -2.4825    1.4149    1.1263 C   0  0  0  0  0  0  0  0  0  0  0  0
   -3.0181    2.2097    2.1884 C   0  0  0  0  0  0  0  0  0  0  0  0
   -3.3945    2.8898    3.0501 N   0  0  0  0  0  0  0  0  0  0  0  0
   -8.3982   -2.2572    0.7049 H   0  0  0  0  0  0  0  0  0  0  0  0
   -7.5526   -1.2884   -0.5130 H   0  0  0  0  0  0  0  0  0  0  0  0
   -7.5286   -0.7994    1.1914 H   0  0  0  0  0  0  0  0  0  0  0  0
   -6.3500   -3.4133    0.1141 H   0  0  0  0  0  0  0  0  0  0  0  0
   -6.2123   -2.8462    1.7709 H   0  0  0  0  0  0  0  0  0  0  0  0
   -4.1323   -2.5322    0.4138 H   0  0  0  0  0  0  0  0  0  0  0  0
   -5.0137   -1.4660   -0.6971 H   0  0  0  0  0  0  0  0  0  0  0  0
    0.1464   -1.4490   -1.6182 H   0  0  0  0  0  0  0  0  0  0  0  0
   -1.4959   -1.8639   -2.1269 H   0  0  0  0  0  0  0  0  0  0  0  0
   -0.6818   -0.4895   -2.8833 H   0  0  0  0  0  0  0  0  0  0  0  0
   -0.2050    3.2933   -2.2761 H   0  0  0  0  0  0  0  0  0  0  0  0
    3.2214   -0.6577    0.7917 H   0  0  0  0  0  0  0  0  0  0  0  0
    3.3144    1.0668    1.2661 H   0  0  0  0  0  0  0  0  0  0  0  0
    4.6736   -0.7765    2.6952 H   0  0  0  0  0  0  0  0  0  0  0  0
    5.4262    0.7813    2.3111 H   0  0  0  0  0  0  0  0  0  0  0  0
    5.7448   -1.8448    0.7742 H   0  0  0  0  0  0  0  0  0  0  0  0
    7.0374   -0.8438    1.4653 H   0  0  0  0  0  0  0  0  0  0  0  0
    6.6891    0.8987   -0.1439 H   0  0  0  0  0  0  0  0  0  0  0  0
    6.3898   -0.5601   -1.1266 H   0  0  0  0  0  0  0  0  0  0  0  0
   -0.8249    2.7651    0.8202 H   0  0  0  0  0  0  0  0  0  0  0  0
  1  2  1  0
  2  3  1  0
  3  4  1  0
  4  5  1  0
  5  6  2  0
  6  7  1  0
  7  8  1  0
  7  9  2  0
  9 10  1  0
 10 11  2  0
 11 12  1  0
 12 13  1  0
 13 14  1  0
 14 15  1  0
 15 16  3  0
 14 17  2  3
 17 18  1  0
 18 19  1  0
 19 20  1  0
 20 21  1  0
 13 22  2  0
  9 23  1  0
 23 24  2  0
 24 25  1  0
 25 26  3  0
 24  5  1  0
 22 10  1  0
 21 17  1  0
  1 27  1  0
  1 28  1  0
  1 29  1  0
  2 30  1  0
  2 31  1  0
  3 32  1  0
  3 33  1  0
  8 34  1  0
  8 35  1  0
  8 36  1  0
 11 37  1  0
 18 38  1  0
 18 39  1  0
 19 40  1  0
 19 41  1  0
 20 42  1  0
 20 43  1  0
 21 44  1  0
 21 45  1  0
 23 46  1  0
M  END
$$$$
