
     RDKit          3D

 54 58  0  0  0  0  0  0  0  0999 V2000
   -3.2332   -3.6798   -1.3621 C   0  0  0  0  0  0  0  0  0  0  0  0
   -4.1832   -2.4991   -1.2199 C   0  0  0  0  0  0  0  0  0  0  0  0
   -4.2528   -1.8560    0.1811 C   0  0  0  0  0  0  0  0  0  0  0  0
   -4.7888   -2.8146    1.2502 C   0  0  0  0  0  0  0  0  0  0  0  0
   -2.9926   -1.1911    0.5546 N   0  0  0  0  0  0  0  0  0  0  0  0
   -1.9427   -1.8970    1.1331 C   0  0  0  0  0  0  0  0  0  0  0  0
   -0.7728   -1.4259    1.4468 N   0  0  0  0  0  0  0  0  0  0  0  0
   -0.6244   -0.1181    1.1367 C   0  0  0  0  0  0  0  0  0  0  0  0
   -1.5520    0.7044    0.5341 C   0  0  0  0  0  0  0  0  0  0  0  0
   -2.8334    0.1556    0.1703 C   0  0  0  0  0  0  0  0  0  0  0  0
   -3.6920    0.7976   -0.4272 O   0  0  0  0  0  0  0  0  0  0  0  0
   -0.9756    1.9826    0.4115 C   0  0  0  0  0  0  0  0  0  0  0  0
   -1.4585    3.1439   -0.0940 N   0  0  0  0  0  0  0  0  0  0  0  0
   -0.6066    4.1789   -0.0313 C   0  0  0  0  0  0  0  0  0  0  0  0
   -1.0245    5.4041   -0.5346 C   0  0  0  0  0  0  0  0  0  0  0  0
   -0.1979    6.5280   -0.5046 C   0  0  0  0  0  0  0  0  0  0  0  0
    1.0741    6.4263    0.0403 C   0  0  0  0  0  0  0  0  0  0  0  0
    1.5078    5.2016    0.5502 C   0  0  0  0  0  0  0  0  0  0  0  0
    0.6966    4.0740    0.5271 C   0  0  0  0  0  0  0  0  0  0  0  0
    1.1837    2.9290    1.0366 N   0  0  0  0  0  0  0  0  0  0  0  0
    0.3074    1.9068    0.9494 C   0  0  0  0  0  0  0  0  0  0  0  0
    0.5146    0.6139    1.3658 N   0  0  0  0  0  0  0  0  0  0  0  0
    1.7340    0.1251    1.9849 C   0  0  0  0  0  0  0  0  0  0  0  0
    2.6978   -0.4161    0.9578 C   0  0  0  0  0  0  0  0  0  0  0  0
    2.6692   -1.7692    0.5937 C   0  0  0  0  0  0  0  0  0  0  0  0
    3.5533   -2.2713   -0.3681 C   0  0  0  0  0  0  0  0  0  0  0  0
    4.4754   -1.4251   -0.9831 C   0  0  0  0  0  0  0  0  0  0  0  0
    5.3908   -1.7854   -1.9334 O   0  0  0  0  0  0  0  0  0  0  0  0
    5.3889   -3.1470   -2.3425 C   0  0  0  0  0  0  0  0  0  0  0  0
    4.5015   -0.0746   -0.6295 C   0  0  0  0  0  0  0  0  0  0  0  0
    3.6202    0.4296    0.3298 C   0  0  0  0  0  0  0  0  0  0  0  0
   -2.1947   -3.3827   -1.1922 H   0  0  0  0  0  0  0  0  0  0  0  0
   -3.4849   -4.4890   -0.6713 H   0  0  0  0  0  0  0  0  0  0  0  0
   -3.2944   -4.0833   -2.3784 H   0  0  0  0  0  0  0  0  0  0  0  0
   -3.8946   -1.7359   -1.9534 H   0  0  0  0  0  0  0  0  0  0  0  0
   -5.1895   -2.8336   -1.5018 H   0  0  0  0  0  0  0  0  0  0  0  0
   -5.0141   -1.0678    0.1060 H   0  0  0  0  0  0  0  0  0  0  0  0
   -4.8558   -2.3086    2.2196 H   0  0  0  0  0  0  0  0  0  0  0  0
   -4.1641   -3.7017    1.3828 H   0  0  0  0  0  0  0  0  0  0  0  0
   -5.7933   -3.1600    0.9822 H   0  0  0  0  0  0  0  0  0  0  0  0
   -2.1532   -2.9562    1.3363 H   0  0  0  0  0  0  0  0  0  0  0  0
   -2.0219    5.4832   -0.9621 H   0  0  0  0  0  0  0  0  0  0  0  0
   -0.5511    7.4743   -0.9065 H   0  0  0  0  0  0  0  0  0  0  0  0
    1.7301    7.2926    0.0705 H   0  0  0  0  0  0  0  0  0  0  0  0
    2.5054    5.1239    0.9763 H   0  0  0  0  0  0  0  0  0  0  0  0
    2.1885    0.9451    2.5533 H   0  0  0  0  0  0  0  0  0  0  0  0
    1.4663   -0.6456    2.7171 H   0  0  0  0  0  0  0  0  0  0  0  0
    1.9484   -2.4430    1.0540 H   0  0  0  0  0  0  0  0  0  0  0  0
    3.4908   -3.3256   -0.6145 H   0  0  0  0  0  0  0  0  0  0  0  0
    4.4315   -3.4216   -2.7976 H   0  0  0  0  0  0  0  0  0  0  0  0
    5.6352   -3.8106   -1.5070 H   0  0  0  0  0  0  0  0  0  0  0  0
    6.1658   -3.2684   -3.1036 H   0  0  0  0  0  0  0  0  0  0  0  0
    5.2117    0.5939   -1.1099 H   0  0  0  0  0  0  0  0  0  0  0  0
    3.6537    1.4893    0.5764 H   0  0  0  0  0  0  0  0  0  0  0  0
  1  2  1  0
  2  3  1  0
  3  4  1  0
  3  5  1  0
  5  6  1  0
  6  7  2  0
  7  8  1  0
  8  9  2  0
  9 10  1  0
 10 11  2  0
  9 12  1  0
 12 13  2  0
 13 14  1  0
 14 15  2  0
 15 16  1  0
 16 17  2  0
 17 18  1  0
 18 19  2  0
 19 20  1  0
 20 21  2  0
 21 22  1  0
 22 23  1  0
 23 24  1  0
 24 25  2  0
 25 26  1  0
 26 27  2  0
 27 28  1  0
 28 29  1  0
 27 30  1  0
 30 31  2  0
 10  5  1  0
 21 12  1  0
 31 24  1  0
 22  8  1  0
 19 14  1  0
  1 32  1  0
  1 33  1  0
  1 34  1  0
  2 35  1  0
  2 36  1  0
  3 37  1  0
  4 38  1  0
  4 39  1  0
  4 40  1  0
  6 41  1  0
 15 42  1  0
 16 43  1  0
 17 44  1  0
 18 45  1  0
 23 46  1  0
 23 47  1  0
 25 48  1  0
 26 49  1  0
 29 50  1  0
 29 51  1  0
 29 52  1  0
 30 53  1  0
 31 54  1  0
M  END
$$$$
