
     RDKit          3D

 54 57  0  0  0  0  0  0  0  0999 V2000
    6.4836   -3.4211    0.7558 C   0  0  0  0  0  0  0  0  0  0  0  0
    7.1023   -2.1472    0.8941 O   0  0  0  0  0  0  0  0  0  0  0  0
    6.2798   -1.0532    0.8608 C   0  0  0  0  0  0  0  0  0  0  0  0
    6.9355    0.1686    1.0218 C   0  0  0  0  0  0  0  0  0  0  0  0
    6.2180    1.3619    1.0065 C   0  0  0  0  0  0  0  0  0  0  0  0
    4.8348    1.3363    0.8305 C   0  0  0  0  0  0  0  0  0  0  0  0
    4.1601    0.1193    0.6696 C   0  0  0  0  0  0  0  0  0  0  0  0
    2.7609    0.1849    0.4916 N   0  0  0  0  0  0  0  0  0  0  0  0
    1.8771   -0.8703    0.3596 C   0  0  0  0  0  0  0  0  0  0  0  0
    2.1370   -2.0653    0.4308 O   0  0  0  0  0  0  0  0  0  0  0  0
    0.4757   -0.4158    0.1498 C   0  0  0  0  0  0  0  0  0  0  0  0
   -0.4953   -1.0373    0.8367 C   0  0  0  0  0  0  0  0  0  0  0  0
   -1.8792   -0.5919    0.8060 C   0  0  0  0  0  0  0  0  0  0  0  0
   -2.8918   -1.3017    1.6395 C   0  0  0  0  0  0  0  0  0  0  0  0
   -2.5523   -2.2638    2.3318 O   0  0  0  0  0  0  0  0  0  0  0  0
   -4.1824   -0.8083    1.5796 N   0  0  0  0  0  0  0  0  0  0  0  0
   -5.1878   -1.4240    2.3179 C   0  0  0  0  0  0  0  0  0  0  0  0
   -6.4488   -0.9749    2.3026 C   0  0  0  0  0  0  0  0  0  0  0  0
   -6.7892    0.1752    1.5088 C   0  0  0  0  0  0  0  0  0  0  0  0
   -5.8524    0.7988    0.7846 C   0  0  0  0  0  0  0  0  0  0  0  0
   -4.4481    0.2991    0.7980 C   0  0  0  0  0  0  0  0  0  0  0  0
   -3.5646    0.9212    0.0869 N   0  0  0  0  0  0  0  0  0  0  0  0
   -2.2628    0.4744    0.0655 C   0  0  0  0  0  0  0  0  0  0  0  0
   -1.2919    1.1318   -0.7368 N   0  0  0  0  0  0  0  0  0  0  0  0
   -1.6981    2.2605   -1.6036 C   0  0  0  0  0  0  0  0  0  0  0  0
   -2.1501    1.8590   -3.0272 C   0  0  0  0  0  0  0  0  0  0  0  0
   -1.0601    1.1750   -3.8513 C   0  0  0  0  0  0  0  0  0  0  0  0
   -3.4267    1.0188   -3.0551 C   0  0  0  0  0  0  0  0  0  0  0  0
    0.0549    0.7355   -0.7199 C   0  0  0  0  0  0  0  0  0  0  0  0
    0.9406    1.3539   -1.4507 N   0  0  0  0  0  0  0  0  0  0  0  0
    4.8923   -1.0731    0.6826 C   0  0  0  0  0  0  0  0  0  0  0  0
    5.7778   -3.6087    1.5717 H   0  0  0  0  0  0  0  0  0  0  0  0
    7.2688   -4.1811    0.8149 H   0  0  0  0  0  0  0  0  0  0  0  0
    5.9984   -3.5200   -0.2208 H   0  0  0  0  0  0  0  0  0  0  0  0
    8.0139    0.1868    1.1593 H   0  0  0  0  0  0  0  0  0  0  0  0
    6.7367    2.3087    1.1310 H   0  0  0  0  0  0  0  0  0  0  0  0
    4.2963    2.2807    0.8202 H   0  0  0  0  0  0  0  0  0  0  0  0
    2.3614    1.1191    0.5208 H   0  0  0  0  0  0  0  0  0  0  0  0
   -0.2560   -1.8758    1.4891 H   0  0  0  0  0  0  0  0  0  0  0  0
   -4.9064   -2.2903    2.9118 H   0  0  0  0  0  0  0  0  0  0  0  0
   -7.2268   -1.4622    2.8816 H   0  0  0  0  0  0  0  0  0  0  0  0
   -7.8175    0.5222    1.5122 H   0  0  0  0  0  0  0  0  0  0  0  0
   -6.0668    1.6668    0.1739 H   0  0  0  0  0  0  0  0  0  0  0  0
   -2.5038    2.8311   -1.1232 H   0  0  0  0  0  0  0  0  0  0  0  0
   -0.8774    2.9853   -1.6848 H   0  0  0  0  0  0  0  0  0  0  0  0
   -2.3877    2.7997   -3.5433 H   0  0  0  0  0  0  0  0  0  0  0  0
   -1.4002    1.0163   -4.8809 H   0  0  0  0  0  0  0  0  0  0  0  0
   -0.7937    0.1963   -3.4402 H   0  0  0  0  0  0  0  0  0  0  0  0
   -0.1596    1.7950   -3.9000 H   0  0  0  0  0  0  0  0  0  0  0  0
   -3.2693    0.0243   -2.6265 H   0  0  0  0  0  0  0  0  0  0  0  0
   -3.7702    0.8788   -4.0863 H   0  0  0  0  0  0  0  0  0  0  0  0
   -4.2348    1.5158   -2.5095 H   0  0  0  0  0  0  0  0  0  0  0  0
    1.8619    0.9041   -1.4198 H   0  0  0  0  0  0  0  0  0  0  0  0
    4.3839   -2.0193    0.5519 H   0  0  0  0  0  0  0  0  0  0  0  0
  1  2  1  0
  2  3  1  0
  3  4  2  0
  4  5  1  0
  5  6  2  0
  6  7  1  0
  7  8  1  0
  8  9  1  0
  9 10  2  0
  9 11  1  0
 11 12  2  0
 12 13  1  0
 13 14  1  0
 14 15  2  0
 14 16  1  0
 16 17  1  0
 17 18  2  0
 18 19  1  0
 19 20  2  0
 20 21  1  0
 21 22  2  0
 22 23  1  0
 23 24  1  0
 24 25  1  0
 25 26  1  0
 26 27  1  0
 26 28  1  0
 24 29  1  0
 29 30  2  3
  7 31  2  0
 31  3  1  0
 29 11  1  0
 23 13  2  0
 21 16  1  0
  1 32  1  0
  1 33  1  0
  1 34  1  0
  4 35  1  0
  5 36  1  0
  6 37  1  0
  8 38  1  0
 12 39  1  0
 17 40  1  0
 18 41  1  0
 19 42  1  0
 20 43  1  0
 25 44  1  0
 25 45  1  0
 26 46  1  0
 27 47  1  0
 27 48  1  0
 27 49  1  0
 28 50  1  0
 28 51  1  0
 28 52  1  0
 30 53  1  0
 31 54  1  0
M  END
$$$$
