
     RDKit          3D

 33 35  0  0  0  0  0  0  0  0999 V2000
   -3.6836   -0.8187    3.8973 C   0  0  0  0  0  0  0  0  0  0  0  0
   -2.6737   -0.5978    2.7822 C   0  0  0  0  0  0  0  0  0  0  0  0
   -3.1468   -1.1108    1.4679 C   0  0  0  0  0  0  0  0  0  0  0  0
   -4.2959   -1.7010    1.1909 N   0  0  0  0  0  0  0  0  0  0  0  0
   -4.2978   -2.0289   -0.1467 N   0  0  0  0  0  0  0  0  0  0  0  0
   -3.1592   -1.6163   -0.6441 C   0  0  0  0  0  0  0  0  0  0  0  0
   -2.3918   -1.0108    0.3169 N   0  0  0  0  0  0  0  0  0  0  0  0
   -1.1370   -0.4775    0.2270 N   0  0  0  0  0  0  0  0  0  0  0  0
   -0.6704   -0.2532   -0.9711 C   0  0  0  0  0  0  0  0  0  0  0  0
    0.7264    0.2801   -1.0729 C   0  0  0  0  0  0  0  0  0  0  0  0
    1.1146    1.1319   -2.1106 C   0  0  0  0  0  0  0  0  0  0  0  0
    2.4283    1.6083   -2.1651 C   0  0  0  0  0  0  0  0  0  0  0  0
    3.3631    1.2499   -1.1902 C   0  0  0  0  0  0  0  0  0  0  0  0
    4.6070    1.7873   -1.3687 O   0  0  0  0  0  0  0  0  0  0  0  0
    5.5968    1.4570   -0.4020 C   0  0  0  0  0  0  0  0  0  0  0  0
    2.9728    0.4092   -0.1489 C   0  0  0  0  0  0  0  0  0  0  0  0
    1.6591   -0.0708   -0.0885 C   0  0  0  0  0  0  0  0  0  0  0  0
   -1.4456   -0.4090   -2.2756 C   0  0  0  0  0  0  0  0  0  0  0  0
   -2.5754   -1.8138   -2.2479 S   0  0  0  0  0  0  0  0  0  0  0  0
   -3.2951   -0.4277    4.8431 H   0  0  0  0  0  0  0  0  0  0  0  0
   -4.6292   -0.3090    3.6828 H   0  0  0  0  0  0  0  0  0  0  0  0
   -3.8976   -1.8843    4.0334 H   0  0  0  0  0  0  0  0  0  0  0  0
   -1.7343   -1.0957    3.0497 H   0  0  0  0  0  0  0  0  0  0  0  0
   -2.4641    0.4751    2.6994 H   0  0  0  0  0  0  0  0  0  0  0  0
    0.4183    1.4577   -2.8776 H   0  0  0  0  0  0  0  0  0  0  0  0
    2.7277    2.2725   -2.9735 H   0  0  0  0  0  0  0  0  0  0  0  0
    6.5248    1.9613   -0.6880 H   0  0  0  0  0  0  0  0  0  0  0  0
    5.7929    0.3797   -0.3904 H   0  0  0  0  0  0  0  0  0  0  0  0
    5.3136    1.8187    0.5920 H   0  0  0  0  0  0  0  0  0  0  0  0
    3.6617    0.1078    0.6336 H   0  0  0  0  0  0  0  0  0  0  0  0
    1.3737   -0.7252    0.7330 H   0  0  0  0  0  0  0  0  0  0  0  0
   -2.0178    0.5096   -2.4442 H   0  0  0  0  0  0  0  0  0  0  0  0
   -0.7656   -0.5556   -3.1189 H   0  0  0  0  0  0  0  0  0  0  0  0
  1  2  1  0
  2  3  1  0
  3  4  2  0
  4  5  1  0
  5  6  2  0
  6  7  1  0
  7  8  1  0
  8  9  2  0
  9 10  1  0
 10 11  2  0
 11 12  1  0
 12 13  2  0
 13 14  1  0
 14 15  1  0
 13 16  1  0
 16 17  2  0
  9 18  1  0
 18 19  1  0
  7  3  1  0
 17 10  1  0
 19  6  1  0
  1 20  1  0
  1 21  1  0
  1 22  1  0
  2 23  1  0
  2 24  1  0
 11 25  1  0
 12 26  1  0
 15 27  1  0
 15 28  1  0
 15 29  1  0
 16 30  1  0
 17 31  1  0
 18 32  1  0
 18 33  1  0
M  END
$$$$
