
     RDKit          3D

 46 48  0  0  0  0  0  0  0  0999 V2000
   -0.8032    4.1483   -1.2976 C   0  0  0  0  0  0  0  0  0  0  0  0
   -1.6763    2.9491   -1.6528 C   0  0  0  0  0  0  0  0  0  0  0  0
   -1.2383    1.6791   -0.9127 C   0  0  0  0  0  0  0  0  0  0  0  0
   -2.5156    0.3741   -1.1588 S   0  0  0  0  0  0  0  0  0  0  0  0
   -3.4505    0.5648    0.2725 C   0  0  0  0  0  0  0  0  0  0  0  0
   -3.0722    1.1016    1.4058 N   0  0  0  0  0  0  0  0  0  0  0  0
   -4.1776    1.0098    2.2191 C   0  0  0  0  0  0  0  0  0  0  0  0
   -4.3545    1.4359    3.5433 C   0  0  0  0  0  0  0  0  0  0  0  0
   -5.5967    1.2262    4.1563 C   0  0  0  0  0  0  0  0  0  0  0  0
   -6.6411    0.6058    3.4650 C   0  0  0  0  0  0  0  0  0  0  0  0
   -6.4844    0.1718    2.1433 C   0  0  0  0  0  0  0  0  0  0  0  0
   -5.2372    0.3925    1.5567 C   0  0  0  0  0  0  0  0  0  0  0  0
   -4.7342    0.1089    0.3125 N   0  0  0  0  0  0  0  0  0  0  0  0
    0.0917    1.1050   -1.4265 C   0  0  0  0  0  0  0  0  0  0  0  0
    0.5958    1.4666   -2.4853 O   0  0  0  0  0  0  0  0  0  0  0  0
    0.6187    0.1603   -0.5519 N   0  0  0  0  0  0  0  0  0  0  0  0
    1.8305   -0.5469   -0.6704 C   0  0  0  0  0  0  0  0  0  0  0  0
    2.1252   -1.4790    0.3293 C   0  0  0  0  0  0  0  0  0  0  0  0
    3.3143   -2.2170    0.2906 C   0  0  0  0  0  0  0  0  0  0  0  0
    4.2336   -2.0360   -0.7475 C   0  0  0  0  0  0  0  0  0  0  0  0
    5.4081   -2.8149   -0.7120 N   0  0  0  0  0  0  0  0  0  0  0  0
    6.4614   -2.7920   -1.6083 C   0  0  0  0  0  0  0  0  0  0  0  0
    7.5484   -3.7690   -1.2347 C   0  0  0  0  0  0  0  0  0  0  0  0
    6.5806   -2.0727   -2.5930 O   0  0  0  0  0  0  0  0  0  0  0  0
    3.9380   -1.1082   -1.7446 C   0  0  0  0  0  0  0  0  0  0  0  0
    2.7455   -0.3689   -1.7061 C   0  0  0  0  0  0  0  0  0  0  0  0
   -0.8330    4.3470   -0.2216 H   0  0  0  0  0  0  0  0  0  0  0  0
    0.2392    3.9894   -1.5888 H   0  0  0  0  0  0  0  0  0  0  0  0
   -1.1641    5.0424   -1.8162 H   0  0  0  0  0  0  0  0  0  0  0  0
   -1.6494    2.8028   -2.7393 H   0  0  0  0  0  0  0  0  0  0  0  0
   -2.7094    3.2053   -1.3859 H   0  0  0  0  0  0  0  0  0  0  0  0
   -1.1071    1.9027    0.1519 H   0  0  0  0  0  0  0  0  0  0  0  0
   -3.5427    1.9201    4.0747 H   0  0  0  0  0  0  0  0  0  0  0  0
   -5.7479    1.5522    5.1829 H   0  0  0  0  0  0  0  0  0  0  0  0
   -7.5975    0.4584    3.9641 H   0  0  0  0  0  0  0  0  0  0  0  0
   -7.2964   -0.3093    1.6092 H   0  0  0  0  0  0  0  0  0  0  0  0
   -5.2187   -0.3410   -0.4497 H   0  0  0  0  0  0  0  0  0  0  0  0
    0.0401   -0.0727    0.2483 H   0  0  0  0  0  0  0  0  0  0  0  0
    1.4368   -1.6464    1.1539 H   0  0  0  0  0  0  0  0  0  0  0  0
    3.5057   -2.9311    1.0873 H   0  0  0  0  0  0  0  0  0  0  0  0
    5.4923   -3.4514    0.0701 H   0  0  0  0  0  0  0  0  0  0  0  0
    8.1161   -4.0400   -2.1294 H   0  0  0  0  0  0  0  0  0  0  0  0
    7.1256   -4.6854   -0.8122 H   0  0  0  0  0  0  0  0  0  0  0  0
    8.2175   -3.3044   -0.5061 H   0  0  0  0  0  0  0  0  0  0  0  0
    4.6125   -0.9275   -2.5762 H   0  0  0  0  0  0  0  0  0  0  0  0
    2.5708    0.3408   -2.5091 H   0  0  0  0  0  0  0  0  0  0  0  0
  1  2  1  0
  2  3  1  0
  3  4  1  0
  4  5  1  0
  5  6  2  0
  6  7  1  0
  7  8  2  0
  8  9  1  0
  9 10  2  0
 10 11  1  0
 11 12  2  0
 12 13  1  0
  3 14  1  0
 14 15  2  0
 14 16  1  0
 16 17  1  0
 17 18  2  0
 18 19  1  0
 19 20  2  0
 20 21  1  0
 21 22  1  0
 22 23  1  0
 22 24  2  0
 20 25  1  0
 25 26  2  0
 13  5  1  0
 26 17  1  0
 12  7  1  0
  1 27  1  0
  1 28  1  0
  1 29  1  0
  2 30  1  0
  2 31  1  0
  3 32  1  0
  8 33  1  0
  9 34  1  0
 10 35  1  0
 11 36  1  0
 13 37  1  0
 16 38  1  0
 18 39  1  0
 19 40  1  0
 21 41  1  0
 23 42  1  0
 23 43  1  0
 23 44  1  0
 25 45  1  0
 26 46  1  0
M  END
$$$$
