
     RDKit          3D

 47 49  0  0  0  0  0  0  0  0999 V2000
   -8.1541   -1.5420    0.2081 C   0  0  0  0  0  0  0  0  0  0  0  0
   -6.8123   -1.0725    0.7409 C   0  0  0  0  0  0  0  0  0  0  0  0
   -6.0289   -0.6318   -0.3669 O   0  0  0  0  0  0  0  0  0  0  0  0
   -4.7802   -0.1454   -0.0950 C   0  0  0  0  0  0  0  0  0  0  0  0
   -4.0782    0.3109   -1.2166 C   0  0  0  0  0  0  0  0  0  0  0  0
   -2.7900    0.8338   -1.0899 C   0  0  0  0  0  0  0  0  0  0  0  0
   -2.2009    0.8902    0.1733 C   0  0  0  0  0  0  0  0  0  0  0  0
   -0.5647    1.5475    0.3695 S   0  0  0  0  0  6  0  0  0  0  0  0
   -0.0674    1.9450   -0.9293 O   0  0  0  0  0  0  0  0  0  0  0  0
   -0.6094    2.4869    1.4694 O   0  0  0  0  0  0  0  0  0  0  0  0
    0.3266    0.1870    0.8773 N   0  0  0  0  0  0  0  0  0  0  0  0
    0.4576   -0.9453   -0.0934 C   0  0  0  0  0  0  0  0  0  0  0  0
    1.5693   -0.7208   -1.1280 C   0  0  0  0  0  0  0  0  0  0  0  0
    2.8413   -0.3083   -0.5257 N   0  0  0  0  0  0  0  0  0  0  0  0
    3.9792   -0.4866   -1.3173 C   0  0  0  0  0  0  0  0  0  0  0  0
    3.9626   -1.0214   -2.4229 O   0  0  0  0  0  0  0  0  0  0  0  0
    5.2862   -0.0379   -0.8004 C   0  0  0  0  0  0  0  0  0  0  0  0
    6.0434    0.8470   -1.5626 C   0  0  0  0  0  0  0  0  0  0  0  0
    7.2731    1.2264   -1.0614 C   0  0  0  0  0  0  0  0  0  0  0  0
    7.7745    0.7786    0.1119 N   0  0  0  0  0  0  0  0  0  0  0  0
    7.0265   -0.1053    0.8081 C   0  0  0  0  0  0  0  0  0  0  0  0
    5.7839   -0.5475    0.3972 C   0  0  0  0  0  0  0  0  0  0  0  0
    2.7289    0.7836    0.4551 C   0  0  0  0  0  0  0  0  0  0  0  0
    1.6464    0.5016    1.5042 C   0  0  0  0  0  0  0  0  0  0  0  0
   -2.8925    0.4454    1.3033 C   0  0  0  0  0  0  0  0  0  0  0  0
   -4.1831   -0.0750    1.1660 C   0  0  0  0  0  0  0  0  0  0  0  0
   -8.6646   -0.7300   -0.3203 H   0  0  0  0  0  0  0  0  0  0  0  0
   -8.0196   -2.3559   -0.5120 H   0  0  0  0  0  0  0  0  0  0  0  0
   -8.7957   -1.8925    1.0215 H   0  0  0  0  0  0  0  0  0  0  0  0
   -6.3166   -1.9083    1.2479 H   0  0  0  0  0  0  0  0  0  0  0  0
   -6.9754   -0.2478    1.4444 H   0  0  0  0  0  0  0  0  0  0  0  0
   -4.5455    0.2622   -2.1980 H   0  0  0  0  0  0  0  0  0  0  0  0
   -2.2648    1.1912   -1.9724 H   0  0  0  0  0  0  0  0  0  0  0  0
   -0.4941   -1.1446   -0.5942 H   0  0  0  0  0  0  0  0  0  0  0  0
    0.6851   -1.8451    0.4928 H   0  0  0  0  0  0  0  0  0  0  0  0
    1.2867    0.0486   -1.8542 H   0  0  0  0  0  0  0  0  0  0  0  0
    1.7174   -1.6487   -1.6929 H   0  0  0  0  0  0  0  0  0  0  0  0
    5.6861    1.2214   -2.5154 H   0  0  0  0  0  0  0  0  0  0  0  0
    7.9116    1.9175   -1.6047 H   0  0  0  0  0  0  0  0  0  0  0  0
    7.4733   -0.4612    1.7323 H   0  0  0  0  0  0  0  0  0  0  0  0
    5.2281   -1.2708    0.9817 H   0  0  0  0  0  0  0  0  0  0  0  0
    3.6793    0.9535    0.9647 H   0  0  0  0  0  0  0  0  0  0  0  0
    2.5045    1.6980   -0.1059 H   0  0  0  0  0  0  0  0  0  0  0  0
    1.9383   -0.3648    2.1115 H   0  0  0  0  0  0  0  0  0  0  0  0
    1.5553    1.3426    2.1989 H   0  0  0  0  0  0  0  0  0  0  0  0
   -2.4329    0.5040    2.2879 H   0  0  0  0  0  0  0  0  0  0  0  0
   -4.6945   -0.4133    2.0613 H   0  0  0  0  0  0  0  0  0  0  0  0
  1  2  1  0
  2  3  1  0
  3  4  1  0
  4  5  2  0
  5  6  1  0
  6  7  2  0
  7  8  1  0
  8  9  2  0
  8 10  2  0
  8 11  1  0
 11 12  1  0
 12 13  1  0
 13 14  1  0
 14 15  1  0
 15 16  2  0
 15 17  1  0
 17 18  2  0
 18 19  1  0
 19 20  2  0
 20 21  1  0
 21 22  2  0
 14 23  1  0
 23 24  1  0
  7 25  1  0
 25 26  2  0
 26  4  1  0
 24 11  1  0
 22 17  1  0
  1 27  1  0
  1 28  1  0
  1 29  1  0
  2 30  1  0
  2 31  1  0
  5 32  1  0
  6 33  1  0
 12 34  1  0
 12 35  1  0
 13 36  1  0
 13 37  1  0
 18 38  1  0
 19 39  1  0
 21 40  1  0
 22 41  1  0
 23 42  1  0
 23 43  1  0
 24 44  1  0
 24 45  1  0
 25 46  1  0
 26 47  1  0
M  END
$$$$
