
     RDKit          3D

 72 76  0  0  0  0  0  0  0  0999 V2000
    9.5614   -0.3349   -3.5530 C   0  0  0  0  0  0  0  0  0  0  0  0
    8.8310   -1.0954   -2.5978 O   0  0  0  0  0  0  0  0  0  0  0  0
    7.6157   -0.5971   -2.2128 C   0  0  0  0  0  0  0  0  0  0  0  0
    6.9642   -1.3446   -1.2295 C   0  0  0  0  0  0  0  0  0  0  0  0
    5.7098   -0.9538   -0.7494 C   0  0  0  0  0  0  0  0  0  0  0  0
    5.0771    0.1831   -1.2647 C   0  0  0  0  0  0  0  0  0  0  0  0
    3.7490    0.5956   -0.7886 C   0  0  0  0  0  0  0  0  0  0  0  0
    3.5166    1.8973   -0.5699 N   0  0  0  0  0  0  0  0  0  0  0  0
    1.9662    2.1043   -0.0423 S   0  0  0  0  0  0  0  0  0  0  0  0
    1.5377    0.4542   -0.0480 C   0  0  0  0  0  0  0  0  0  0  0  0
    0.2015   -0.0019    0.2895 C   0  0  0  0  0  0  0  0  0  0  0  0
   -0.3501   -0.8494   -0.4181 O   0  0  0  0  0  0  0  0  0  0  0  0
   -0.4642    0.5697    1.3942 N   0  0  0  0  0  0  0  0  0  0  0  0
    0.2223    1.0069    2.5722 C   0  0  0  0  0  0  0  0  0  0  0  0
    1.3585    0.3281    3.0407 C   0  0  0  0  0  0  0  0  0  0  0  0
    2.0265    0.7657    4.1867 C   0  0  0  0  0  0  0  0  0  0  0  0
    1.5572    1.8779    4.8705 C   0  0  0  0  0  0  0  0  0  0  0  0
    2.1948    2.2989    5.9715 F   0  0  0  0  0  0  0  0  0  0  0  0
    0.4300    2.5611    4.4311 C   0  0  0  0  0  0  0  0  0  0  0  0
   -0.2394    2.1244    3.2846 C   0  0  0  0  0  0  0  0  0  0  0  0
   -1.9305    0.3679    1.4999 C   0  0  0  0  0  0  0  0  0  0  0  0
   -2.3136   -1.1400    1.5644 C   0  0  0  0  0  0  0  0  0  0  0  0
   -1.5891   -1.9666    2.1271 O   0  0  0  0  0  0  0  0  0  0  0  0
   -3.5579   -1.4893    1.0639 N   0  0  0  0  0  0  0  0  0  0  0  0
   -3.9548   -2.8822    0.9773 C   0  0  0  0  0  0  0  0  0  0  0  0
   -3.2119   -3.6214   -0.1448 C   0  0  0  0  0  0  0  0  0  0  0  0
   -4.2401   -4.5879   -0.7115 C   0  0  0  0  0  0  0  0  0  0  0  0
   -5.5184   -3.7687   -0.6766 C   0  0  0  0  0  0  0  0  0  0  0  0
   -5.4501   -3.0392    0.6631 C   0  0  0  0  0  0  0  0  0  0  0  0
   -2.7293    1.2570    0.5425 C   0  0  0  0  0  0  0  0  0  0  0  0
   -2.7413    1.0658   -0.8452 C   0  0  0  0  0  0  0  0  0  0  0  0
   -3.4853    1.9079   -1.6782 C   0  0  0  0  0  0  0  0  0  0  0  0
   -4.2398    2.9553   -1.1504 C   0  0  0  0  0  0  0  0  0  0  0  0
   -4.9136    3.7003   -2.0783 O   0  0  0  0  0  0  0  0  0  0  0  0
   -5.7540    4.7370   -1.5853 C   0  0  0  0  0  0  0  0  0  0  0  0
   -4.2441    3.1564    0.2274 C   0  0  0  0  0  0  0  0  0  0  0  0
   -3.4970    2.3160    1.0630 C   0  0  0  0  0  0  0  0  0  0  0  0
    2.6098   -0.2689   -0.5381 C   0  0  0  0  0  0  0  0  0  0  0  0
    2.5674   -1.6140   -0.7377 N   0  0  0  0  0  0  0  0  0  0  0  0
    5.7442    0.9399   -2.2385 C   0  0  0  0  0  0  0  0  0  0  0  0
    7.0047    0.5544   -2.7100 C   0  0  0  0  0  0  0  0  0  0  0  0
   10.5111   -0.8493   -3.7291 H   0  0  0  0  0  0  0  0  0  0  0  0
    9.0265   -0.2831   -4.5080 H   0  0  0  0  0  0  0  0  0  0  0  0
    9.7904    0.6665   -3.1710 H   0  0  0  0  0  0  0  0  0  0  0  0
    7.4413   -2.2379   -0.8296 H   0  0  0  0  0  0  0  0  0  0  0  0
    5.2391   -1.5462    0.0327 H   0  0  0  0  0  0  0  0  0  0  0  0
    1.7186   -0.5769    2.5523 H   0  0  0  0  0  0  0  0  0  0  0  0
    2.8989    0.2343    4.5584 H   0  0  0  0  0  0  0  0  0  0  0  0
    0.0863    3.4331    4.9789 H   0  0  0  0  0  0  0  0  0  0  0  0
   -1.0941    2.6966    2.9369 H   0  0  0  0  0  0  0  0  0  0  0  0
   -2.2300    0.6881    2.5091 H   0  0  0  0  0  0  0  0  0  0  0  0
   -4.0107   -0.8434    0.4292 H   0  0  0  0  0  0  0  0  0  0  0  0
   -3.7366   -3.3567    1.9426 H   0  0  0  0  0  0  0  0  0  0  0  0
   -2.8892   -2.9236   -0.9295 H   0  0  0  0  0  0  0  0  0  0  0  0
   -2.3199   -4.1384    0.2246 H   0  0  0  0  0  0  0  0  0  0  0  0
   -4.3303   -5.4712   -0.0669 H   0  0  0  0  0  0  0  0  0  0  0  0
   -3.9853   -4.9230   -1.7216 H   0  0  0  0  0  0  0  0  0  0  0  0
   -5.5218   -3.0396   -1.4970 H   0  0  0  0  0  0  0  0  0  0  0  0
   -6.4152   -4.3877   -0.7674 H   0  0  0  0  0  0  0  0  0  0  0  0
   -5.9959   -2.0887    0.6283 H   0  0  0  0  0  0  0  0  0  0  0  0
   -5.9181   -3.6577    1.4406 H   0  0  0  0  0  0  0  0  0  0  0  0
   -2.1773    0.2613   -1.3133 H   0  0  0  0  0  0  0  0  0  0  0  0
   -3.4673    1.7461   -2.7559 H   0  0  0  0  0  0  0  0  0  0  0  0
   -6.5467    4.3302   -0.9467 H   0  0  0  0  0  0  0  0  0  0  0  0
   -5.1744    5.5008   -1.0567 H   0  0  0  0  0  0  0  0  0  0  0  0
   -6.2306    5.2188   -2.4448 H   0  0  0  0  0  0  0  0  0  0  0  0
   -4.8105    3.9606    0.6856 H   0  0  0  0  0  0  0  0  0  0  0  0
   -3.5212    2.5073    2.1339 H   0  0  0  0  0  0  0  0  0  0  0  0
    1.6484   -2.0602   -0.8119 H   0  0  0  0  0  0  0  0  0  0  0  0
    3.2325   -2.0479   -1.3723 H   0  0  0  0  0  0  0  0  0  0  0  0
    5.2839    1.8440   -2.6358 H   0  0  0  0  0  0  0  0  0  0  0  0
    7.4767    1.1742   -3.4650 H   0  0  0  0  0  0  0  0  0  0  0  0
  1  2  1  0
  2  3  1  0
  3  4  2  0
  4  5  1  0
  5  6  2  0
  6  7  1  0
  7  8  2  0
  8  9  1  0
  9 10  1  0
 10 11  1  0
 11 12  2  0
 11 13  1  0
 13 14  1  0
 14 15  2  0
 15 16  1  0
 16 17  2  0
 17 18  1  0
 17 19  1  0
 19 20  2  0
 13 21  1  0
 21 22  1  0
 22 23  2  0
 22 24  1  0
 24 25  1  0
 25 26  1  0
 26 27  1  0
 27 28  1  0
 28 29  1  0
 21 30  1  0
 30 31  2  0
 31 32  1  0
 32 33  2  0
 33 34  1  0
 34 35  1  0
 33 36  1  0
 36 37  2  0
 10 38  2  0
 38 39  1  0
  6 40  1  0
 40 41  2  0
 41  3  1  0
 38  7  1  0
 20 14  1  0
 29 25  1  0
 37 30  1  0
  1 42  1  0
  1 43  1  0
  1 44  1  0
  4 45  1  0
  5 46  1  0
 15 47  1  0
 16 48  1  0
 19 49  1  0
 20 50  1  0
 21 51  1  0
 24 52  1  0
 25 53  1  0
 26 54  1  0
 26 55  1  0
 27 56  1  0
 27 57  1  0
 28 58  1  0
 28 59  1  0
 29 60  1  0
 29 61  1  0
 31 62  1  0
 32 63  1  0
 35 64  1  0
 35 65  1  0
 35 66  1  0
 36 67  1  0
 37 68  1  0
 39 69  1  0
 39 70  1  0
 40 71  1  0
 41 72  1  0
M  END
$$$$
