
     RDKit          3D

 57 59  0  0  0  0  0  0  0  0999 V2000
    8.0730   -2.6622   -0.5510 C   0  0  0  0  0  0  0  0  0  0  0  0
    6.6492   -2.1281   -0.3788 C   0  0  0  0  0  0  0  0  0  0  0  0
    5.6844   -2.9482   -1.2405 C   0  0  0  0  0  0  0  0  0  0  0  0
    6.2564   -2.1499    1.1104 C   0  0  0  0  0  0  0  0  0  0  0  0
    4.9802   -1.4334    1.3994 C   0  0  0  0  0  0  0  0  0  0  0  0
    4.7523   -0.0378    1.4595 C   0  0  0  0  0  0  0  0  0  0  0  0
    3.4166    0.0751    1.7641 C   0  0  0  0  0  0  0  0  0  0  0  0
    2.4983    1.2157    1.9739 C   0  0  0  0  0  0  0  0  0  0  0  0
    1.5489    1.2518    0.8820 N   0  0  0  0  0  0  0  0  0  0  0  0
    0.2197    0.9410    1.0760 C   0  0  0  0  0  0  0  0  0  0  0  0
   -0.2671    0.7543    2.1857 O   0  0  0  0  0  0  0  0  0  0  0  0
   -0.5813    0.8355   -0.2195 C   0  0  0  0  0  0  0  0  0  0  0  0
   -0.6376    2.1446   -0.9983 C   0  0  0  0  0  0  0  0  0  0  0  0
   -1.4650    3.1772   -0.2551 C   0  0  0  0  0  0  0  0  0  0  0  0
   -2.8432    2.6903    0.1397 C   0  0  0  0  0  0  0  0  0  0  0  0
   -3.7694    3.4945    0.2407 O   0  0  0  0  0  0  0  0  0  0  0  0
   -2.9631    1.3491    0.4629 N   0  0  0  0  0  0  0  0  0  0  0  0
   -4.2444    0.8683    0.9762 C   0  0  0  0  0  0  0  0  0  0  0  0
   -5.1114    0.2447   -0.0946 C   0  0  0  0  0  0  0  0  0  0  0  0
   -5.1973   -1.1499   -0.2204 C   0  0  0  0  0  0  0  0  0  0  0  0
   -5.9783   -1.7244   -1.2227 C   0  0  0  0  0  0  0  0  0  0  0  0
   -6.6843   -0.9122   -2.1102 C   0  0  0  0  0  0  0  0  0  0  0  0
   -6.6181    0.4851   -2.0035 C   0  0  0  0  0  0  0  0  0  0  0  0
   -7.3732    1.3778   -2.9571 C   0  0  0  0  0  0  0  0  0  0  0  0
   -6.5455    2.1337   -3.7317 F   0  0  0  0  0  0  0  0  0  0  0  0
   -8.1686    0.6923   -3.8279 F   0  0  0  0  0  0  0  0  0  0  0  0
   -8.1972    2.2541   -2.3186 F   0  0  0  0  0  0  0  0  0  0  0  0
   -5.8245    1.0527   -0.9931 C   0  0  0  0  0  0  0  0  0  0  0  0
   -2.0017    0.3345    0.0274 C   0  0  0  0  0  0  0  0  0  0  0  0
    2.8800   -1.1707    1.8857 O   0  0  0  0  0  0  0  0  0  0  0  0
    3.8585   -2.1191    1.6481 N   0  0  0  0  0  0  0  0  0  0  0  0
    8.1551   -3.6950   -0.1993 H   0  0  0  0  0  0  0  0  0  0  0  0
    8.3731   -2.6382   -1.6043 H   0  0  0  0  0  0  0  0  0  0  0  0
    8.7868   -2.0542    0.0122 H   0  0  0  0  0  0  0  0  0  0  0  0
    6.6340   -1.0925   -0.7426 H   0  0  0  0  0  0  0  0  0  0  0  0
    6.0007   -2.9385   -2.2901 H   0  0  0  0  0  0  0  0  0  0  0  0
    4.6704   -2.5408   -1.2013 H   0  0  0  0  0  0  0  0  0  0  0  0
    5.6455   -3.9923   -0.9101 H   0  0  0  0  0  0  0  0  0  0  0  0
    7.0497   -1.6713    1.7001 H   0  0  0  0  0  0  0  0  0  0  0  0
    6.1953   -3.1866    1.4671 H   0  0  0  0  0  0  0  0  0  0  0  0
    5.4603    0.7627    1.3061 H   0  0  0  0  0  0  0  0  0  0  0  0
    3.0515    2.1600    1.9474 H   0  0  0  0  0  0  0  0  0  0  0  0
    1.9961    1.1365    2.9427 H   0  0  0  0  0  0  0  0  0  0  0  0
    1.9218    1.2393   -0.0578 H   0  0  0  0  0  0  0  0  0  0  0  0
   -0.0629    0.0804   -0.8265 H   0  0  0  0  0  0  0  0  0  0  0  0
    0.3652    2.5453   -1.1836 H   0  0  0  0  0  0  0  0  0  0  0  0
   -1.0895    1.9581   -1.9812 H   0  0  0  0  0  0  0  0  0  0  0  0
   -1.5858    4.0592   -0.8945 H   0  0  0  0  0  0  0  0  0  0  0  0
   -0.9539    3.5001    0.6590 H   0  0  0  0  0  0  0  0  0  0  0  0
   -4.0347    0.1418    1.7714 H   0  0  0  0  0  0  0  0  0  0  0  0
   -4.7965    1.6857    1.4567 H   0  0  0  0  0  0  0  0  0  0  0  0
   -4.6510   -1.7983    0.4620 H   0  0  0  0  0  0  0  0  0  0  0  0
   -6.0365   -2.8070   -1.3118 H   0  0  0  0  0  0  0  0  0  0  0  0
   -7.2880   -1.3762   -2.8883 H   0  0  0  0  0  0  0  0  0  0  0  0
   -5.7604    2.1394   -0.9056 H   0  0  0  0  0  0  0  0  0  0  0  0
   -2.3895   -0.0735   -0.9144 H   0  0  0  0  0  0  0  0  0  0  0  0
   -2.0032   -0.4803    0.7605 H   0  0  0  0  0  0  0  0  0  0  0  0
  1  2  1  0
  2  3  1  0
  2  4  1  0
  4  5  1  0
  5  6  1  0
  6  7  2  0
  7  8  1  0
  8  9  1  0
  9 10  1  0
 10 11  2  0
 10 12  1  0
 12 13  1  0
 13 14  1  0
 14 15  1  0
 15 16  2  0
 15 17  1  0
 17 18  1  0
 18 19  1  0
 19 20  2  0
 20 21  1  0
 21 22  2  0
 22 23  1  0
 23 24  1  0
 24 25  1  0
 24 26  1  0
 24 27  1  0
 23 28  2  0
 17 29  1  0
  7 30  1  0
 30 31  1  0
 31  5  2  0
 29 12  1  0
 28 19  1  0
  1 32  1  0
  1 33  1  0
  1 34  1  0
  2 35  1  0
  3 36  1  0
  3 37  1  0
  3 38  1  0
  4 39  1  0
  4 40  1  0
  6 41  1  0
  8 42  1  0
  8 43  1  0
  9 44  1  0
 12 45  1  0
 13 46  1  0
 13 47  1  0
 14 48  1  0
 14 49  1  0
 18 50  1  0
 18 51  1  0
 20 52  1  0
 21 53  1  0
 22 54  1  0
 28 55  1  0
 29 56  1  0
 29 57  1  0
M  END
$$$$
