
     RDKit          3D

 62 65  0  0  0  0  0  0  0  0999 V2000
   -0.5956    2.9036   -1.2748 C   0  0  0  0  0  0  0  0  0  0  0  0
   -1.3755    2.0046   -0.3481 C   0  0  0  0  0  0  0  0  0  0  0  0
   -2.2216    2.6320    0.5831 C   0  0  0  0  0  0  0  0  0  0  0  0
   -2.9782    1.8951    1.4893 C   0  0  0  0  0  0  0  0  0  0  0  0
   -3.7969    2.6234    2.3048 O   0  0  0  0  0  0  0  0  0  0  0  0
   -2.8949    0.5034    1.5349 C   0  0  0  0  0  0  0  0  0  0  0  0
   -3.6806   -0.3253    2.5412 C   0  0  0  0  0  0  0  0  0  0  0  0
   -4.9493   -0.8848    1.8948 C   0  0  0  0  0  0  0  0  0  0  0  0
   -2.8609   -1.4520    3.1839 C   0  0  0  0  0  0  0  0  0  0  0  0
   -2.0531   -0.1243    0.5938 C   0  0  0  0  0  0  0  0  0  0  0  0
   -1.2670    0.5893   -0.3475 C   0  0  0  0  0  0  0  0  0  0  0  0
   -0.3337   -0.1660   -1.3401 C   0  0  0  0  0  0  0  0  0  0  0  0
    1.1578    0.2449   -1.2160 C   0  0  0  0  0  0  0  0  0  0  0  0
    1.6839    0.4230    0.0929 C   0  0  0  0  0  0  0  0  0  0  0  0
    3.0208    0.7798    0.3470 C   0  0  0  0  0  0  0  0  0  0  0  0
    3.4660    0.9627    1.7895 C   0  0  0  0  0  0  0  0  0  0  0  0
    3.8947    2.4016    2.0884 C   0  0  0  0  0  0  0  0  0  0  0  0
    4.5481   -0.0399    2.1986 C   0  0  0  0  0  0  0  0  0  0  0  0
    3.8594    0.9514   -0.7508 C   0  0  0  0  0  0  0  0  0  0  0  0
    5.1644    1.3022   -0.5557 O   0  0  0  0  0  0  0  0  0  0  0  0
    3.3870    0.7654   -2.0503 C   0  0  0  0  0  0  0  0  0  0  0  0
    2.0488    0.4019   -2.3033 C   0  0  0  0  0  0  0  0  0  0  0  0
    1.6564    0.2114   -3.7442 C   0  0  0  0  0  0  0  0  0  0  0  0
   -0.9060    0.1544   -2.6415 O   0  0  0  0  0  0  0  0  0  0  0  0
   -1.5108   -0.9072   -3.2404 C   0  0  0  0  0  0  0  0  0  0  0  0
   -2.1442   -0.8951   -4.2763 O   0  0  0  0  0  0  0  0  0  0  0  0
   -1.1881   -2.0717   -2.4377 C   0  0  0  0  0  0  0  0  0  0  0  0
   -1.4891   -3.3978   -2.7016 C   0  0  0  0  0  0  0  0  0  0  0  0
   -1.0171   -4.3579   -1.8076 C   0  0  0  0  0  0  0  0  0  0  0  0
   -0.2572   -3.9733   -0.6917 C   0  0  0  0  0  0  0  0  0  0  0  0
    0.0310   -2.6249   -0.4530 C   0  0  0  0  0  0  0  0  0  0  0  0
   -0.4563   -1.6690   -1.3392 C   0  0  0  0  0  0  0  0  0  0  0  0
   -0.5984    2.5356   -2.3027 H   0  0  0  0  0  0  0  0  0  0  0  0
   -1.0379    3.9058   -1.3141 H   0  0  0  0  0  0  0  0  0  0  0  0
    0.4336    3.0138   -0.9219 H   0  0  0  0  0  0  0  0  0  0  0  0
   -2.3089    3.7172    0.5978 H   0  0  0  0  0  0  0  0  0  0  0  0
   -4.5505    2.0703    2.5622 H   0  0  0  0  0  0  0  0  0  0  0  0
   -3.9809    0.3202    3.3751 H   0  0  0  0  0  0  0  0  0  0  0  0
   -4.7144   -1.5690    1.0716 H   0  0  0  0  0  0  0  0  0  0  0  0
   -5.5480   -1.4349    2.6286 H   0  0  0  0  0  0  0  0  0  0  0  0
   -5.5730   -0.0799    1.4901 H   0  0  0  0  0  0  0  0  0  0  0  0
   -2.6163   -2.2480    2.4731 H   0  0  0  0  0  0  0  0  0  0  0  0
   -3.4256   -1.9126    4.0023 H   0  0  0  0  0  0  0  0  0  0  0  0
   -1.9231   -1.0673    3.5996 H   0  0  0  0  0  0  0  0  0  0  0  0
   -2.0232   -1.2102    0.6018 H   0  0  0  0  0  0  0  0  0  0  0  0
    1.0236    0.2883    0.9506 H   0  0  0  0  0  0  0  0  0  0  0  0
    2.6031    0.7606    2.4389 H   0  0  0  0  0  0  0  0  0  0  0  0
    4.8093    2.6830    1.5576 H   0  0  0  0  0  0  0  0  0  0  0  0
    3.1102    3.1110    1.8021 H   0  0  0  0  0  0  0  0  0  0  0  0
    4.0856    2.5287    3.1597 H   0  0  0  0  0  0  0  0  0  0  0  0
    4.7503    0.0336    3.2728 H   0  0  0  0  0  0  0  0  0  0  0  0
    4.2296   -1.0669    1.9879 H   0  0  0  0  0  0  0  0  0  0  0  0
    5.4941    0.1305    1.6758 H   0  0  0  0  0  0  0  0  0  0  0  0
    5.5970    1.4073   -1.4181 H   0  0  0  0  0  0  0  0  0  0  0  0
    4.0662    0.8985   -2.8894 H   0  0  0  0  0  0  0  0  0  0  0  0
    2.5237    0.2835   -4.4104 H   0  0  0  0  0  0  0  0  0  0  0  0
    0.9519    0.9870   -4.0576 H   0  0  0  0  0  0  0  0  0  0  0  0
    1.2332   -0.7842   -3.9007 H   0  0  0  0  0  0  0  0  0  0  0  0
   -2.0621   -3.6758   -3.5809 H   0  0  0  0  0  0  0  0  0  0  0  0
   -1.2284   -5.4109   -1.9807 H   0  0  0  0  0  0  0  0  0  0  0  0
    0.1147   -4.7337   -0.0074 H   0  0  0  0  0  0  0  0  0  0  0  0
    0.6223   -2.3423    0.4136 H   0  0  0  0  0  0  0  0  0  0  0  0
  1  2  1  0
  2  3  2  0
  3  4  1  0
  4  5  1  0
  4  6  2  0
  6  7  1  0
  7  8  1  0
  7  9  1  0
  6 10  1  0
 10 11  2  0
 11 12  1  0
 12 13  1  0
 13 14  2  0
 14 15  1  0
 15 16  1  0
 16 17  1  0
 16 18  1  0
 15 19  2  0
 19 20  1  0
 19 21  1  0
 21 22  2  0
 22 23  1  0
 12 24  1  0
 24 25  1  0
 25 26  2  0
 25 27  1  0
 27 28  2  0
 28 29  1  0
 29 30  2  0
 30 31  1  0
 31 32  2  0
 11  2  1  0
 32 12  1  0
 22 13  1  0
 32 27  1  0
  1 33  1  0
  1 34  1  0
  1 35  1  0
  3 36  1  0
  5 37  1  0
  7 38  1  0
  8 39  1  0
  8 40  1  0
  8 41  1  0
  9 42  1  0
  9 43  1  0
  9 44  1  0
 10 45  1  0
 14 46  1  0
 16 47  1  0
 17 48  1  0
 17 49  1  0
 17 50  1  0
 18 51  1  0
 18 52  1  0
 18 53  1  0
 20 54  1  0
 21 55  1  0
 23 56  1  0
 23 57  1  0
 23 58  1  0
 28 59  1  0
 29 60  1  0
 30 61  1  0
 31 62  1  0
M  END
$$$$
