
     RDKit          3D

 48 49  0  0  0  0  0  0  0  0999 V2000
    0.5834    3.7268   -0.5459 C   0  0  0  0  0  0  0  0  0  0  0  0
    1.4085    2.5692   -0.5638 O   0  0  0  0  0  0  0  0  0  0  0  0
    0.8049    1.3573   -0.3469 C   0  0  0  0  0  0  0  0  0  0  0  0
   -0.5046    1.2036    0.1262 C   0  0  0  0  0  0  0  0  0  0  0  0
   -1.0627   -0.0734    0.3063 C   0  0  0  0  0  0  0  0  0  0  0  0
   -2.4843   -0.2333    0.7998 C   0  0  0  0  0  0  0  0  0  0  0  0
   -3.3556   -0.6316   -0.3016 N   0  0  0  0  0  0  0  0  0  0  0  0
   -4.7939   -0.7527    0.0215 C   0  0  0  0  0  0  0  0  0  0  0  0
   -5.4088    0.6196    0.3570 C   0  0  0  0  0  0  0  0  0  0  0  0
   -5.4646   -1.2661   -1.2709 C   0  0  0  0  0  0  0  0  0  0  0  0
   -5.0628   -1.7588    1.1764 C   0  0  0  0  0  0  0  0  0  0  0  0
   -6.4542   -1.9634    1.4110 O   0  0  0  0  0  0  0  0  0  0  0  0
   -0.2976   -1.2040   -0.0102 C   0  0  0  0  0  0  0  0  0  0  0  0
    1.0105   -1.0621   -0.4744 C   0  0  0  0  0  0  0  0  0  0  0  0
    1.9923   -2.6374   -0.8740 Br  0  0  0  0  0  0  0  0  0  0  0  0
    1.5739    0.2115   -0.6211 C   0  0  0  0  0  0  0  0  0  0  0  0
    2.8564    0.3010   -1.1083 O   0  0  0  0  0  0  0  0  0  0  0  0
    3.7525    0.8989   -0.1681 C   0  0  0  0  0  0  0  0  0  0  0  0
    5.1003    0.2352   -0.3259 C   0  0  0  0  0  0  0  0  0  0  0  0
    6.0077    0.6918   -1.2934 C   0  0  0  0  0  0  0  0  0  0  0  0
    7.2449    0.0643   -1.4556 C   0  0  0  0  0  0  0  0  0  0  0  0
    7.5763   -1.0283   -0.6572 C   0  0  0  0  0  0  0  0  0  0  0  0
    9.1002   -1.8027   -0.8575 Cl  0  0  0  0  0  0  0  0  0  0  0  0
    6.6801   -1.5017    0.2988 C   0  0  0  0  0  0  0  0  0  0  0  0
    5.4431   -0.8740    0.4614 C   0  0  0  0  0  0  0  0  0  0  0  0
    1.1961    4.5778   -0.8583 H   0  0  0  0  0  0  0  0  0  0  0  0
   -0.2469    3.6366   -1.2542 H   0  0  0  0  0  0  0  0  0  0  0  0
    0.2212    3.9323    0.4664 H   0  0  0  0  0  0  0  0  0  0  0  0
   -1.1171    2.0685    0.3630 H   0  0  0  0  0  0  0  0  0  0  0  0
   -2.4777   -0.9880    1.5944 H   0  0  0  0  0  0  0  0  0  0  0  0
   -2.8135    0.7085    1.2517 H   0  0  0  0  0  0  0  0  0  0  0  0
   -3.2352    0.0290   -1.0700 H   0  0  0  0  0  0  0  0  0  0  0  0
   -5.0414    1.0083    1.3125 H   0  0  0  0  0  0  0  0  0  0  0  0
   -5.1788    1.3600   -0.4183 H   0  0  0  0  0  0  0  0  0  0  0  0
   -6.5007    0.5575    0.4322 H   0  0  0  0  0  0  0  0  0  0  0  0
   -5.2693   -0.5967   -2.1178 H   0  0  0  0  0  0  0  0  0  0  0  0
   -5.0950   -2.2623   -1.5414 H   0  0  0  0  0  0  0  0  0  0  0  0
   -6.5530   -1.3331   -1.1635 H   0  0  0  0  0  0  0  0  0  0  0  0
   -4.6050   -2.7330    0.9680 H   0  0  0  0  0  0  0  0  0  0  0  0
   -4.6411   -1.3916    2.1178 H   0  0  0  0  0  0  0  0  0  0  0  0
   -6.7782   -2.5662    0.7195 H   0  0  0  0  0  0  0  0  0  0  0  0
   -0.7354   -2.1944    0.0996 H   0  0  0  0  0  0  0  0  0  0  0  0
    3.4112    0.7894    0.8708 H   0  0  0  0  0  0  0  0  0  0  0  0
    3.8507    1.9697   -0.3814 H   0  0  0  0  0  0  0  0  0  0  0  0
    5.7481    1.5337   -1.9320 H   0  0  0  0  0  0  0  0  0  0  0  0
    7.9388    0.4264   -2.2093 H   0  0  0  0  0  0  0  0  0  0  0  0
    6.9335   -2.3612    0.9131 H   0  0  0  0  0  0  0  0  0  0  0  0
    4.7427   -1.2607    1.1989 H   0  0  0  0  0  0  0  0  0  0  0  0
  1  2  1  0
  2  3  1  0
  3  4  2  0
  4  5  1  0
  5  6  1  0
  6  7  1  0
  7  8  1  0
  8  9  1  0
  8 10  1  0
  8 11  1  0
 11 12  1  0
  5 13  2  0
 13 14  1  0
 14 15  1  0
 14 16  2  0
 16 17  1  0
 17 18  1  0
 18 19  1  0
 19 20  2  0
 20 21  1  0
 21 22  2  0
 22 23  1  0
 22 24  1  0
 24 25  2  0
 16  3  1  0
 25 19  1  0
  1 26  1  0
  1 27  1  0
  1 28  1  0
  4 29  1  0
  6 30  1  0
  6 31  1  0
  7 32  1  0
  9 33  1  0
  9 34  1  0
  9 35  1  0
 10 36  1  0
 10 37  1  0
 10 38  1  0
 11 39  1  0
 11 40  1  0
 12 41  1  0
 13 42  1  0
 18 43  1  0
 18 44  1  0
 20 45  1  0
 21 46  1  0
 24 47  1  0
 25 48  1  0
M  END
$$$$
