
     RDKit          3D

 45 49  0  0  0  0  0  0  0  0999 V2000
   -1.4830    2.8434   -0.1146 O   0  0  0  0  0  0  0  0  0  0  0  0
   -1.3732    1.6235    0.0119 C   0  0  0  0  0  0  0  0  0  0  0  0
   -0.0142    1.0313    0.0597 C   0  0  0  0  0  0  0  0  0  0  0  0
    1.1814    1.7443    0.3183 C   0  0  0  0  0  0  0  0  0  0  0  0
    2.1987    0.8287    0.2141 C   0  0  0  0  0  0  0  0  0  0  0  0
    3.5469    0.9602    0.3716 N   0  0  0  0  0  0  0  0  0  0  0  0
    4.2901   -0.1005    0.2012 C   0  0  0  0  0  0  0  0  0  0  0  0
    5.7420    0.0028    0.3613 C   0  0  0  0  0  0  0  0  0  0  0  0
    6.7229   -0.9728    0.2663 C   0  0  0  0  0  0  0  0  0  0  0  0
    8.0384   -0.4659    0.4900 C   0  0  0  0  0  0  0  0  0  0  0  0
    8.0320    0.8836    0.7506 C   0  0  0  0  0  0  0  0  0  0  0  0
    6.4540    1.5303    0.7267 S   0  0  0  0  0  0  0  0  0  0  0  0
    3.7112   -1.4427   -0.1552 C   0  0  0  0  0  0  0  0  0  0  0  0
    2.3735   -1.5206   -0.2994 C   0  0  0  0  0  0  0  0  0  0  0  0
    1.6516   -2.7666   -0.6421 C   0  0  0  0  0  0  0  0  0  0  0  0
    0.7599   -3.1363    0.3109 F   0  0  0  0  0  0  0  0  0  0  0  0
    0.9902   -2.6861   -1.8221 F   0  0  0  0  0  0  0  0  0  0  0  0
    2.5134   -3.8157   -0.7694 F   0  0  0  0  0  0  0  0  0  0  0  0
    1.5974   -0.3840   -0.1187 N   0  0  0  0  0  0  0  0  0  0  0  0
    0.2544   -0.2578   -0.2187 N   0  0  0  0  0  0  0  0  0  0  0  0
   -2.4732    0.7426    0.1050 N   0  0  0  0  0  0  0  0  0  0  0  0
   -2.4679   -0.2773    1.1612 C   0  0  0  0  0  0  0  0  0  0  0  0
   -3.4046   -1.4312    0.8645 C   0  0  0  0  0  0  0  0  0  0  0  0
   -4.8199   -0.8948    0.7697 C   0  0  0  0  0  0  0  0  0  0  0  0
   -4.8902    0.2761   -0.1746 C   0  0  0  0  0  0  0  0  0  0  0  0
   -6.1409    0.5911   -0.7375 C   0  0  0  0  0  0  0  0  0  0  0  0
   -6.2708    1.6448   -1.6359 C   0  0  0  0  0  0  0  0  0  0  0  0
   -5.1513    2.3881   -1.9838 C   0  0  0  0  0  0  0  0  0  0  0  0
   -3.9066    2.0915   -1.4182 C   0  0  0  0  0  0  0  0  0  0  0  0
   -3.7541    1.0581   -0.4800 C   0  0  0  0  0  0  0  0  0  0  0  0
    1.2825    2.7963    0.5466 H   0  0  0  0  0  0  0  0  0  0  0  0
    6.5335   -2.0158    0.0474 H   0  0  0  0  0  0  0  0  0  0  0  0
    8.9424   -1.0625    0.4605 H   0  0  0  0  0  0  0  0  0  0  0  0
    8.8789    1.5248    0.9549 H   0  0  0  0  0  0  0  0  0  0  0  0
    4.3578   -2.2988   -0.2871 H   0  0  0  0  0  0  0  0  0  0  0  0
   -2.7628    0.2297    2.0904 H   0  0  0  0  0  0  0  0  0  0  0  0
   -1.4689   -0.6687    1.3544 H   0  0  0  0  0  0  0  0  0  0  0  0
   -3.1151   -1.9154   -0.0768 H   0  0  0  0  0  0  0  0  0  0  0  0
   -3.3445   -2.1864    1.6558 H   0  0  0  0  0  0  0  0  0  0  0  0
   -5.4812   -1.7002    0.4288 H   0  0  0  0  0  0  0  0  0  0  0  0
   -5.1700   -0.5699    1.7571 H   0  0  0  0  0  0  0  0  0  0  0  0
   -7.0201    0.0034   -0.4818 H   0  0  0  0  0  0  0  0  0  0  0  0
   -7.2387    1.8777   -2.0711 H   0  0  0  0  0  0  0  0  0  0  0  0
   -5.2374    3.2036   -2.6975 H   0  0  0  0  0  0  0  0  0  0  0  0
   -3.0645    2.6941   -1.7450 H   0  0  0  0  0  0  0  0  0  0  0  0
  1  2  2  0
  2  3  1  0
  3  4  1  0
  4  5  2  0
  5  6  1  0
  6  7  2  0
  7  8  1  0
  8  9  2  0
  9 10  1  0
 10 11  2  0
 11 12  1  0
  7 13  1  0
 13 14  2  0
 14 15  1  0
 15 16  1  0
 15 17  1  0
 15 18  1  0
 14 19  1  0
 19 20  1  0
  2 21  1  0
 21 22  1  0
 22 23  1  0
 23 24  1  0
 24 25  1  0
 25 26  2  0
 26 27  1  0
 27 28  2  0
 28 29  1  0
 29 30  2  0
 20  3  2  0
 30 21  1  0
 19  5  1  0
 30 25  1  0
 12  8  1  0
  4 31  1  0
  9 32  1  0
 10 33  1  0
 11 34  1  0
 13 35  1  0
 22 36  1  0
 22 37  1  0
 23 38  1  0
 23 39  1  0
 24 40  1  0
 24 41  1  0
 26 42  1  0
 27 43  1  0
 28 44  1  0
 29 45  1  0
M  END
$$$$
