
     RDKit          3D

 67 71  0  0  0  0  0  0  0  0999 V2000
    8.5993   -1.7959    0.8756 O   0  0  0  0  0  0  0  0  0  0  0  0
    8.3444   -1.0880   -0.0835 C   0  0  0  0  0  0  0  0  0  0  0  0
    9.3550   -0.4134   -0.9766 C   0  0  0  0  0  0  0  0  0  0  0  0
    8.5319   -0.0451   -2.2064 C   0  0  0  0  0  0  0  0  0  0  0  0
    7.1299    0.1584   -1.6652 C   0  0  0  0  0  0  0  0  0  0  0  0
    7.0839   -0.7232   -0.5279 N   0  0  0  0  0  0  0  0  0  0  0  0
    5.8465   -1.1017    0.1276 C   0  0  0  0  0  0  0  0  0  0  0  0
    5.2847   -2.3959   -0.4550 C   0  0  0  0  0  0  0  0  0  0  0  0
    4.1060   -2.9448    0.3445 C   0  0  0  0  0  0  0  0  0  0  0  0
    2.9120   -2.1453    0.1564 N   0  0  0  0  0  0  0  0  0  0  0  0
    2.5383   -1.0382    0.8738 C   0  0  0  0  0  0  0  0  0  0  0  0
    2.9406   -0.8388    2.3039 C   0  0  0  0  0  0  0  0  0  0  0  0
    2.5499    0.2747    2.9354 C   0  0  0  0  0  0  0  0  0  0  0  0
    1.7705    1.2139    2.2381 C   0  0  0  0  0  0  0  0  0  0  0  0
    1.2455    2.3687    2.5798 N   0  0  0  0  0  0  0  0  0  0  0  0
    0.5607    2.8553    1.4876 N   0  0  0  0  0  0  0  0  0  0  0  0
    0.6840    1.9849    0.5040 C   0  0  0  0  0  0  0  0  0  0  0  0
    0.1093    2.0776   -0.8672 C   0  0  0  0  0  0  0  0  0  0  0  0
   -1.1997    1.2977   -0.9810 C   0  0  0  0  0  0  0  0  0  0  0  0
   -2.4037    2.0969   -0.5071 C   0  0  0  0  0  0  0  0  0  0  0  0
   -2.3961    3.3273   -0.5037 O   0  0  0  0  0  0  0  0  0  0  0  0
   -3.5320    1.3781   -0.1446 N   0  0  0  0  0  0  0  0  0  0  0  0
   -3.6810   -0.0799   -0.2417 C   0  0  0  0  0  0  0  0  0  0  0  0
   -5.1478   -0.5217   -0.4079 C   0  0  0  0  0  0  0  0  0  0  0  0
   -6.0244    0.0150    0.6614 N   0  0  0  0  0  0  0  0  0  0  0  0
   -7.3852   -0.0800    0.3346 C   0  0  0  0  0  0  0  0  0  0  0  0
   -7.9680   -1.3513    0.1968 C   0  0  0  0  0  0  0  0  0  0  0  0
   -9.3162   -1.5087   -0.1373 C   0  0  0  0  0  0  0  0  0  0  0  0
  -10.1144   -0.3896   -0.3442 C   0  0  0  0  0  0  0  0  0  0  0  0
   -9.5617    0.8805   -0.2173 C   0  0  0  0  0  0  0  0  0  0  0  0
   -8.2110    1.0313    0.1190 C   0  0  0  0  0  0  0  0  0  0  0  0
   -5.5273    1.2288    1.3447 C   0  0  0  0  0  0  0  0  0  0  0  0
   -4.6779    2.1072    0.4140 C   0  0  0  0  0  0  0  0  0  0  0  0
    1.4471    0.9229    0.9321 N   0  0  0  0  0  0  0  0  0  0  0  0
    1.8008   -0.1833    0.2107 N   0  0  0  0  0  0  0  0  0  0  0  0
   10.1730   -1.0926   -1.2269 H   0  0  0  0  0  0  0  0  0  0  0  0
    9.7401    0.4760   -0.4686 H   0  0  0  0  0  0  0  0  0  0  0  0
    8.9171    0.8341   -2.7308 H   0  0  0  0  0  0  0  0  0  0  0  0
    8.5378   -0.8860   -2.9113 H   0  0  0  0  0  0  0  0  0  0  0  0
    6.3624   -0.1107   -2.3959 H   0  0  0  0  0  0  0  0  0  0  0  0
    6.9709    1.1831   -1.3159 H   0  0  0  0  0  0  0  0  0  0  0  0
    5.1413   -0.2707    0.0263 H   0  0  0  0  0  0  0  0  0  0  0  0
    6.0570   -1.2395    1.1943 H   0  0  0  0  0  0  0  0  0  0  0  0
    4.9965   -2.2369   -1.5019 H   0  0  0  0  0  0  0  0  0  0  0  0
    6.0757   -3.1570   -0.4640 H   0  0  0  0  0  0  0  0  0  0  0  0
    4.3658   -3.0594    1.4011 H   0  0  0  0  0  0  0  0  0  0  0  0
    3.8838   -3.9531   -0.0235 H   0  0  0  0  0  0  0  0  0  0  0  0
    2.5892   -2.0990   -0.8068 H   0  0  0  0  0  0  0  0  0  0  0  0
    3.5205   -1.5985    2.8068 H   0  0  0  0  0  0  0  0  0  0  0  0
    2.8057    0.4671    3.9705 H   0  0  0  0  0  0  0  0  0  0  0  0
    0.8308    1.6667   -1.5846 H   0  0  0  0  0  0  0  0  0  0  0  0
   -0.0202    3.1314   -1.1381 H   0  0  0  0  0  0  0  0  0  0  0  0
   -1.1228    0.3556   -0.4292 H   0  0  0  0  0  0  0  0  0  0  0  0
   -1.3823    1.0626   -2.0365 H   0  0  0  0  0  0  0  0  0  0  0  0
   -3.2623   -0.5029    0.6793 H   0  0  0  0  0  0  0  0  0  0  0  0
   -3.0945   -0.4597   -1.0839 H   0  0  0  0  0  0  0  0  0  0  0  0
   -5.1848   -1.6171   -0.4076 H   0  0  0  0  0  0  0  0  0  0  0  0
   -5.4994   -0.1714   -1.3886 H   0  0  0  0  0  0  0  0  0  0  0  0
   -7.3688   -2.2396    0.3786 H   0  0  0  0  0  0  0  0  0  0  0  0
   -9.7393   -2.5051   -0.2253 H   0  0  0  0  0  0  0  0  0  0  0  0
  -11.1633   -0.5060   -0.6019 H   0  0  0  0  0  0  0  0  0  0  0  0
  -10.1786    1.7603   -0.3815 H   0  0  0  0  0  0  0  0  0  0  0  0
   -7.8184    2.0408    0.1819 H   0  0  0  0  0  0  0  0  0  0  0  0
   -4.8970    0.8925    2.1779 H   0  0  0  0  0  0  0  0  0  0  0  0
   -6.3301    1.8142    1.8060 H   0  0  0  0  0  0  0  0  0  0  0  0
   -4.3237    2.9880    0.9611 H   0  0  0  0  0  0  0  0  0  0  0  0
   -5.2762    2.4587   -0.4349 H   0  0  0  0  0  0  0  0  0  0  0  0
  1  2  2  0
  2  3  1  0
  3  4  1  0
  4  5  1  0
  5  6  1  0
  6  7  1  0
  7  8  1  0
  8  9  1  0
  9 10  1  0
 10 11  1  0
 11 12  1  0
 12 13  2  0
 13 14  1  0
 14 15  2  0
 15 16  1  0
 16 17  2  0
 17 18  1  0
 18 19  1  0
 19 20  1  0
 20 21  2  0
 20 22  1  0
 22 23  1  0
 23 24  1  0
 24 25  1  0
 25 26  1  0
 26 27  2  0
 27 28  1  0
 28 29  2  0
 29 30  1  0
 30 31  2  0
 25 32  1  0
 32 33  1  0
 17 34  1  0
 34 35  1  0
  6  2  1  0
 35 11  2  0
 34 14  1  0
 33 22  1  0
 31 26  1  0
  3 36  1  0
  3 37  1  0
  4 38  1  0
  4 39  1  0
  5 40  1  0
  5 41  1  0
  7 42  1  0
  7 43  1  0
  8 44  1  0
  8 45  1  0
  9 46  1  0
  9 47  1  0
 10 48  1  0
 12 49  1  0
 13 50  1  0
 18 51  1  0
 18 52  1  0
 19 53  1  0
 19 54  1  0
 23 55  1  0
 23 56  1  0
 24 57  1  0
 24 58  1  0
 27 59  1  0
 28 60  1  0
 29 61  1  0
 30 62  1  0
 31 63  1  0
 32 64  1  0
 32 65  1  0
 33 66  1  0
 33 67  1  0
M  END
$$$$
