
     RDKit          3D

 48 51  0  0  0  0  0  0  0  0999 V2000
    9.1485    0.4994   -0.5490 C   0  0  0  0  0  0  0  0  0  0  0  0
    8.2323   -0.3806    0.0894 O   0  0  0  0  0  0  0  0  0  0  0  0
    6.9018   -0.1379   -0.1084 C   0  0  0  0  0  0  0  0  0  0  0  0
    6.3586    0.8839   -0.8831 C   0  0  0  0  0  0  0  0  0  0  0  0
    4.9668    1.0182   -1.0017 C   0  0  0  0  0  0  0  0  0  0  0  0
    4.0829    0.1364   -0.3542 C   0  0  0  0  0  0  0  0  0  0  0  0
    2.6155    0.2628   -0.4720 C   0  0  0  0  0  0  0  0  0  0  0  0
    1.9833    0.7265   -1.6214 C   0  0  0  0  0  0  0  0  0  0  0  0
    0.5908    0.8121   -1.6464 C   0  0  0  0  0  0  0  0  0  0  0  0
   -0.1630    0.4316   -0.5290 C   0  0  0  0  0  0  0  0  0  0  0  0
   -1.6157    0.5166   -0.5682 C   0  0  0  0  0  0  0  0  0  0  0  0
   -2.2771    1.3612   -1.3790 N   0  0  0  0  0  0  0  0  0  0  0  0
   -3.6186    1.0983   -1.1088 O   0  0  0  0  0  0  0  0  0  0  0  0
   -3.6480    0.1024   -0.1765 C   0  0  0  0  0  0  0  0  0  0  0  0
   -4.9468   -0.3622    0.3150 C   0  0  0  0  0  0  0  0  0  0  0  0
   -4.9434   -1.1948    1.4535 C   0  0  0  0  0  0  0  0  0  0  0  0
   -6.1289   -1.6839    2.0005 C   0  0  0  0  0  0  0  0  0  0  0  0
   -7.3428   -1.3508    1.4151 C   0  0  0  0  0  0  0  0  0  0  0  0
   -7.3724   -0.5332    0.2831 C   0  0  0  0  0  0  0  0  0  0  0  0
   -6.1858   -0.0342   -0.2772 C   0  0  0  0  0  0  0  0  0  0  0  0
   -6.1573    0.7549   -1.3980 O   0  0  0  0  0  0  0  0  0  0  0  0
   -7.3942    1.1421   -1.9816 C   0  0  0  0  0  0  0  0  0  0  0  0
   -2.4429   -0.2880    0.1808 N   0  0  0  0  0  0  0  0  0  0  0  0
    0.5478   -0.0198    0.5811 C   0  0  0  0  0  0  0  0  0  0  0  0
   -0.1496   -0.3573    1.7239 O   0  0  0  0  0  0  0  0  0  0  0  0
    0.6722   -0.8316    2.7840 C   0  0  0  0  0  0  0  0  0  0  0  0
    1.9038   -0.1118    0.6193 N   0  0  0  0  0  0  0  0  0  0  0  0
    4.6547   -0.8804    0.4295 C   0  0  0  0  0  0  0  0  0  0  0  0
    6.0422   -1.0172    0.5476 C   0  0  0  0  0  0  0  0  0  0  0  0
    9.0510    0.4484   -1.6385 H   0  0  0  0  0  0  0  0  0  0  0  0
    9.0267    1.5261   -0.1883 H   0  0  0  0  0  0  0  0  0  0  0  0
   10.1606    0.1737   -0.2901 H   0  0  0  0  0  0  0  0  0  0  0  0
    6.9846    1.5995   -1.4055 H   0  0  0  0  0  0  0  0  0  0  0  0
    4.5839    1.8436   -1.5981 H   0  0  0  0  0  0  0  0  0  0  0  0
    2.5495    1.0048   -2.5042 H   0  0  0  0  0  0  0  0  0  0  0  0
    0.0998    1.1693   -2.5498 H   0  0  0  0  0  0  0  0  0  0  0  0
   -3.9982   -1.4648    1.9251 H   0  0  0  0  0  0  0  0  0  0  0  0
   -6.0999   -2.3223    2.8799 H   0  0  0  0  0  0  0  0  0  0  0  0
   -8.2711   -1.7297    1.8359 H   0  0  0  0  0  0  0  0  0  0  0  0
   -8.3448   -0.3075   -0.1427 H   0  0  0  0  0  0  0  0  0  0  0  0
   -8.0005    1.7207   -1.2770 H   0  0  0  0  0  0  0  0  0  0  0  0
   -7.1720    1.7880   -2.8365 H   0  0  0  0  0  0  0  0  0  0  0  0
   -7.9421    0.2716   -2.3569 H   0  0  0  0  0  0  0  0  0  0  0  0
    0.0179   -1.0882    3.6228 H   0  0  0  0  0  0  0  0  0  0  0  0
    1.3637   -0.0548    3.1284 H   0  0  0  0  0  0  0  0  0  0  0  0
    1.2115   -1.7401    2.4941 H   0  0  0  0  0  0  0  0  0  0  0  0
    4.0129   -1.5841    0.9575 H   0  0  0  0  0  0  0  0  0  0  0  0
    6.4516   -1.8170    1.1599 H   0  0  0  0  0  0  0  0  0  0  0  0
  1  2  1  0
  2  3  1  0
  3  4  2  0
  4  5  1  0
  5  6  2  0
  6  7  1  0
  7  8  2  0
  8  9  1  0
  9 10  2  0
 10 11  1  0
 11 12  2  0
 12 13  1  0
 13 14  1  0
 14 15  1  0
 15 16  2  0
 16 17  1  0
 17 18  2  0
 18 19  1  0
 19 20  2  0
 20 21  1  0
 21 22  1  0
 14 23  2  0
 10 24  1  0
 24 25  1  0
 25 26  1  0
 24 27  2  0
  6 28  1  0
 28 29  2  0
 29  3  1  0
 27  7  1  0
 23 11  1  0
 20 15  1  0
  1 30  1  0
  1 31  1  0
  1 32  1  0
  4 33  1  0
  5 34  1  0
  8 35  1  0
  9 36  1  0
 16 37  1  0
 17 38  1  0
 18 39  1  0
 19 40  1  0
 22 41  1  0
 22 42  1  0
 22 43  1  0
 26 44  1  0
 26 45  1  0
 26 46  1  0
 28 47  1  0
 29 48  1  0
M  END
$$$$
