
     RDKit          3D

 52 55  0  0  0  0  0  0  0  0999 V2000
   -2.4557    1.9705    3.3662 C   0  0  0  0  0  0  0  0  0  0  0  0
   -2.8477    1.7020    1.9455 C   0  0  0  0  0  0  0  0  0  0  0  0
   -2.8715    0.3974    1.4378 C   0  0  0  0  0  0  0  0  0  0  0  0
   -3.2554    0.1746    0.1080 C   0  0  0  0  0  0  0  0  0  0  0  0
   -3.2327   -1.4870   -0.5265 S   0  0  0  0  0  6  0  0  0  0  0  0
   -3.6734   -1.4579   -1.9029 O   0  0  0  0  0  0  0  0  0  0  0  0
   -3.8516   -2.3334    0.4678 O   0  0  0  0  0  0  0  0  0  0  0  0
   -1.5865   -1.8505   -0.5200 N   0  0  0  0  0  0  0  0  0  0  0  0
   -0.7103   -1.0664   -1.4250 C   0  0  0  0  0  0  0  0  0  0  0  0
    0.8064   -1.3066   -1.1115 C   0  0  0  0  0  0  0  0  0  0  0  0
    1.0594   -0.8724    0.3418 C   0  0  0  0  0  0  0  0  0  0  0  0
    1.3142   -1.8492    1.3365 C   0  0  0  0  0  0  0  0  0  0  0  0
    1.5115   -1.4834    2.6719 C   0  0  0  0  0  0  0  0  0  0  0  0
    1.4546   -0.1434    2.9856 C   0  0  0  0  0  0  0  0  0  0  0  0
    1.2145    0.8147    2.0305 C   0  0  0  0  0  0  0  0  0  0  0  0
    1.0144    0.4870    0.7068 C   0  0  0  0  0  0  0  0  0  0  0  0
    1.1980    2.0714    2.5489 O   0  0  0  0  0  0  0  0  0  0  0  0
    1.4936    1.7979    3.9341 C   0  0  0  0  0  0  0  0  0  0  0  0
    1.6205    0.3902    4.2251 O   0  0  0  0  0  0  0  0  0  0  0  0
    1.7295   -0.6059   -2.0421 N   0  0  0  0  0  0  0  0  0  0  0  0
    1.3928   -0.8329   -3.4667 C   0  0  0  0  0  0  0  0  0  0  0  0
    2.5882   -0.5729   -4.3964 C   0  0  0  0  0  0  0  0  0  0  0  0
    3.6673   -1.4869   -4.1671 O   0  0  0  0  0  0  0  0  0  0  0  0
    3.7411   -1.9382   -2.8095 C   0  0  0  0  0  0  0  0  0  0  0  0
    3.1588   -0.9318   -1.8038 C   0  0  0  0  0  0  0  0  0  0  0  0
   -3.6481    1.2340   -0.7152 C   0  0  0  0  0  0  0  0  0  0  0  0
   -3.6404    2.5311   -0.2039 C   0  0  0  0  0  0  0  0  0  0  0  0
   -3.2435    2.7542    1.1134 C   0  0  0  0  0  0  0  0  0  0  0  0
   -3.2491    4.0093    1.5846 F   0  0  0  0  0  0  0  0  0  0  0  0
   -3.3484    2.1352    3.9772 H   0  0  0  0  0  0  0  0  0  0  0  0
   -1.8960    1.1295    3.7887 H   0  0  0  0  0  0  0  0  0  0  0  0
   -1.8110    2.8537    3.4277 H   0  0  0  0  0  0  0  0  0  0  0  0
   -2.5920   -0.4403    2.0738 H   0  0  0  0  0  0  0  0  0  0  0  0
   -1.2515   -1.9869    0.4337 H   0  0  0  0  0  0  0  0  0  0  0  0
   -0.9341    0.0020   -1.3431 H   0  0  0  0  0  0  0  0  0  0  0  0
   -0.9443   -1.3835   -2.4465 H   0  0  0  0  0  0  0  0  0  0  0  0
    0.9901   -2.3876   -1.1913 H   0  0  0  0  0  0  0  0  0  0  0  0
    1.3589   -2.9041    1.0697 H   0  0  0  0  0  0  0  0  0  0  0  0
    1.7073   -2.2269    3.4369 H   0  0  0  0  0  0  0  0  0  0  0  0
    0.8347    1.2656   -0.0282 H   0  0  0  0  0  0  0  0  0  0  0  0
    0.6888    2.2115    4.5524 H   0  0  0  0  0  0  0  0  0  0  0  0
    2.4327    2.2979    4.1988 H   0  0  0  0  0  0  0  0  0  0  0  0
    1.0690   -1.8710   -3.6178 H   0  0  0  0  0  0  0  0  0  0  0  0
    0.5714   -0.1675   -3.7535 H   0  0  0  0  0  0  0  0  0  0  0  0
    2.2828   -0.6831   -5.4418 H   0  0  0  0  0  0  0  0  0  0  0  0
    2.9667    0.4488   -4.2742 H   0  0  0  0  0  0  0  0  0  0  0  0
    4.7960   -2.1255   -2.5848 H   0  0  0  0  0  0  0  0  0  0  0  0
    3.2190   -2.8996   -2.7401 H   0  0  0  0  0  0  0  0  0  0  0  0
    3.7143    0.0099   -1.9005 H   0  0  0  0  0  0  0  0  0  0  0  0
    3.3492   -1.2908   -0.7876 H   0  0  0  0  0  0  0  0  0  0  0  0
   -3.9588    1.0600   -1.7430 H   0  0  0  0  0  0  0  0  0  0  0  0
   -3.9437    3.3722   -0.8202 H   0  0  0  0  0  0  0  0  0  0  0  0
  1  2  1  0
  2  3  2  0
  3  4  1  0
  4  5  1  0
  5  6  2  0
  5  7  2  0
  5  8  1  0
  8  9  1  0
  9 10  1  0
 10 11  1  0
 11 12  2  0
 12 13  1  0
 13 14  2  0
 14 15  1  0
 15 16  2  0
 15 17  1  0
 17 18  1  0
 18 19  1  0
 10 20  1  0
 20 21  1  0
 21 22  1  0
 22 23  1  0
 23 24  1  0
 24 25  1  0
  4 26  2  0
 26 27  1  0
 27 28  2  0
 28 29  1  0
 28  2  1  0
 16 11  1  0
 25 20  1  0
 19 14  1  0
  1 30  1  0
  1 31  1  0
  1 32  1  0
  3 33  1  0
  8 34  1  0
  9 35  1  0
  9 36  1  0
 10 37  1  0
 12 38  1  0
 13 39  1  0
 16 40  1  0
 18 41  1  0
 18 42  1  0
 21 43  1  0
 21 44  1  0
 22 45  1  0
 22 46  1  0
 24 47  1  0
 24 48  1  0
 25 49  1  0
 25 50  1  0
 26 51  1  0
 27 52  1  0
M  END
$$$$
