
     RDKit          3D

 55 58  0  0  0  0  0  0  0  0999 V2000
    0.6629    1.2058   -0.2040 O   0  0  0  0  0  0  0  0  0  0  0  0
    0.4958    0.0198    0.0764 C   0  0  0  0  0  0  0  0  0  0  0  0
    1.6693   -0.8705    0.1238 C   0  0  0  0  0  0  0  0  0  0  0  0
    2.9635   -0.3762   -0.0999 C   0  0  0  0  0  0  0  0  0  0  0  0
    4.0893   -1.2139   -0.0579 C   0  0  0  0  0  0  0  0  0  0  0  0
    5.3661   -0.7334   -0.2802 N   0  0  0  0  0  0  0  0  0  0  0  0
    6.5665   -1.4497    0.1843 C   0  0  0  0  0  0  0  0  0  0  0  0
    7.7036   -0.4535    0.4690 C   0  0  0  0  0  0  0  0  0  0  0  0
    8.0862    0.3352   -0.6654 O   0  0  0  0  0  0  0  0  0  0  0  0
    7.0062    0.5777   -1.5779 C   0  0  0  0  0  0  0  0  0  0  0  0
    5.6141    0.5692   -0.9234 C   0  0  0  0  0  0  0  0  0  0  0  0
    3.8480   -2.5724    0.2151 C   0  0  0  0  0  0  0  0  0  0  0  0
    2.5582   -3.0736    0.4381 C   0  0  0  0  0  0  0  0  0  0  0  0
    1.4707   -2.2116    0.3915 C   0  0  0  0  0  0  0  0  0  0  0  0
    0.1837   -2.6936    0.6081 N   0  0  0  0  0  0  0  0  0  0  0  0
   -0.9409   -1.9134    0.5896 C   0  0  0  0  0  0  0  0  0  0  0  0
   -2.3917   -2.7101    0.8694 S   0  0  0  0  0  0  0  0  0  0  0  0
   -0.7594   -0.5524    0.3451 N   0  0  0  0  0  0  0  0  0  0  0  0
   -1.8950    0.3849    0.2861 C   0  0  0  0  0  0  0  0  0  0  0  0
   -2.4421    0.5201   -1.1351 C   0  0  0  0  0  0  0  0  0  0  0  0
   -3.4212    1.6873   -1.3309 C   0  0  0  0  0  0  0  0  0  0  0  0
   -4.7158    1.6744   -0.6438 N   0  0  0  0  0  0  0  0  0  0  0  0
   -4.6912    2.2406    0.7049 C   0  0  0  0  0  0  0  0  0  0  0  0
   -6.1112    2.4289    1.2442 C   0  0  0  0  0  0  0  0  0  0  0  0
   -6.9025    1.1266    1.1944 C   0  0  0  0  0  0  0  0  0  0  0  0
   -6.8594    0.5321   -0.2089 C   0  0  0  0  0  0  0  0  0  0  0  0
   -5.4211    0.3936   -0.7112 C   0  0  0  0  0  0  0  0  0  0  0  0
    3.0761    0.6886   -0.2875 H   0  0  0  0  0  0  0  0  0  0  0  0
    6.8770   -2.1587   -0.5920 H   0  0  0  0  0  0  0  0  0  0  0  0
    6.3680   -2.0028    1.1093 H   0  0  0  0  0  0  0  0  0  0  0  0
    8.5947   -0.9888    0.8120 H   0  0  0  0  0  0  0  0  0  0  0  0
    7.4109    0.2372    1.2688 H   0  0  0  0  0  0  0  0  0  0  0  0
    7.1912    1.5449   -2.0560 H   0  0  0  0  0  0  0  0  0  0  0  0
    7.0597   -0.1882   -2.3608 H   0  0  0  0  0  0  0  0  0  0  0  0
    4.8746    0.7706   -1.7069 H   0  0  0  0  0  0  0  0  0  0  0  0
    5.5525    1.3589   -0.1656 H   0  0  0  0  0  0  0  0  0  0  0  0
    4.6707   -3.2830    0.2349 H   0  0  0  0  0  0  0  0  0  0  0  0
    2.4284   -4.1332    0.6387 H   0  0  0  0  0  0  0  0  0  0  0  0
    0.0435   -3.6805    0.7945 H   0  0  0  0  0  0  0  0  0  0  0  0
   -1.5650    1.3652    0.6507 H   0  0  0  0  0  0  0  0  0  0  0  0
   -2.6773    0.0505    0.9705 H   0  0  0  0  0  0  0  0  0  0  0  0
   -2.9007   -0.4222   -1.4562 H   0  0  0  0  0  0  0  0  0  0  0  0
   -1.6044    0.6804   -1.8269 H   0  0  0  0  0  0  0  0  0  0  0  0
   -2.9003    2.6316   -1.1247 H   0  0  0  0  0  0  0  0  0  0  0  0
   -3.6440    1.7294   -2.4058 H   0  0  0  0  0  0  0  0  0  0  0  0
   -4.2027    3.2223    0.6939 H   0  0  0  0  0  0  0  0  0  0  0  0
   -4.1300    1.6071    1.3982 H   0  0  0  0  0  0  0  0  0  0  0  0
   -6.6301    3.1943    0.6529 H   0  0  0  0  0  0  0  0  0  0  0  0
   -6.0693    2.7967    2.2757 H   0  0  0  0  0  0  0  0  0  0  0  0
   -7.9406    1.3058    1.4949 H   0  0  0  0  0  0  0  0  0  0  0  0
   -6.4775    0.4113    1.9092 H   0  0  0  0  0  0  0  0  0  0  0  0
   -7.4278    1.1732   -0.8947 H   0  0  0  0  0  0  0  0  0  0  0  0
   -7.3477   -0.4489   -0.2100 H   0  0  0  0  0  0  0  0  0  0  0  0
   -5.4553    0.0373   -1.7478 H   0  0  0  0  0  0  0  0  0  0  0  0
   -4.9070   -0.3706   -0.1168 H   0  0  0  0  0  0  0  0  0  0  0  0
  1  2  2  0
  2  3  1  0
  3  4  2  0
  4  5  1  0
  5  6  1  0
  6  7  1  0
  7  8  1  0
  8  9  1  0
  9 10  1  0
 10 11  1  0
  5 12  2  0
 12 13  1  0
 13 14  2  0
 14 15  1  0
 15 16  1  0
 16 17  2  0
 16 18  1  0
 18 19  1  0
 19 20  1  0
 20 21  1  0
 21 22  1  0
 22 23  1  0
 23 24  1  0
 24 25  1  0
 25 26  1  0
 26 27  1  0
 18  2  1  0
 27 22  1  0
 14  3  1  0
 11  6  1  0
  4 28  1  0
  7 29  1  0
  7 30  1  0
  8 31  1  0
  8 32  1  0
 10 33  1  0
 10 34  1  0
 11 35  1  0
 11 36  1  0
 12 37  1  0
 13 38  1  0
 15 39  1  0
 19 40  1  0
 19 41  1  0
 20 42  1  0
 20 43  1  0
 21 44  1  0
 21 45  1  0
 23 46  1  0
 23 47  1  0
 24 48  1  0
 24 49  1  0
 25 50  1  0
 25 51  1  0
 26 52  1  0
 26 53  1  0
 27 54  1  0
 27 55  1  0
M  END
$$$$
