
     RDKit          3D

 54 56  0  0  0  0  0  0  0  0999 V2000
   -1.4898   -0.3894    4.1703 N   0  0  0  0  0  0  0  0  0  0  0  0
   -2.2178    0.0424    3.1240 C   0  0  0  0  0  0  0  0  0  0  0  0
   -3.3969    0.5697    3.2494 N   0  0  0  0  0  0  0  0  0  0  0  0
   -3.7769    0.9278    1.8562 C   0  0  0  0  0  0  0  0  0  0  0  0
   -2.7317    0.2798    0.9230 C   0  0  0  0  0  0  0  0  0  0  0  0
   -3.2858   -0.9519    0.1862 C   0  0  0  0  0  0  0  0  0  0  0  0
   -4.1890   -0.5898   -0.9700 C   0  0  0  0  0  0  0  0  0  0  0  0
   -3.6471   -0.0997   -2.1667 C   0  0  0  0  0  0  0  0  0  0  0  0
   -4.4806    0.2470   -3.2312 C   0  0  0  0  0  0  0  0  0  0  0  0
   -5.8616    0.1064   -3.1107 C   0  0  0  0  0  0  0  0  0  0  0  0
   -6.4103   -0.3834   -1.9272 C   0  0  0  0  0  0  0  0  0  0  0  0
   -5.5787   -0.7313   -0.8617 C   0  0  0  0  0  0  0  0  0  0  0  0
   -1.6927   -0.1416    1.8782 N   0  0  0  0  0  0  0  0  0  0  0  0
   -0.3133    0.2554    1.5837 C   0  0  0  0  0  0  0  0  0  0  0  0
    0.2218   -0.4792    0.3525 C   0  0  0  0  0  0  0  0  0  0  0  0
    1.6897   -0.1297    0.0897 C   0  0  0  0  0  0  0  0  0  0  0  0
    2.2168   -0.8668   -1.1464 C   0  0  0  0  0  0  0  0  0  0  0  0
    3.6885   -0.5847   -1.5135 C   0  0  0  0  0  0  0  0  0  0  0  0
    3.8939    0.8503   -2.0332 C   0  0  0  0  0  0  0  0  0  0  0  0
    5.3737    1.2125   -2.0703 C   0  0  0  0  0  0  0  0  0  0  0  0
    6.0031    1.1802   -0.6768 C   0  0  0  0  0  0  0  0  0  0  0  0
    5.2762    0.2574    0.3024 C   0  0  0  0  0  0  0  0  0  0  0  0
    4.6801   -0.9612   -0.3938 C   0  0  0  0  0  0  0  0  0  0  0  0
   -2.0585   -0.4081    5.0100 H   0  0  0  0  0  0  0  0  0  0  0  0
   -1.0600   -1.2876    3.9930 H   0  0  0  0  0  0  0  0  0  0  0  0
   -3.7490    2.0194    1.7604 H   0  0  0  0  0  0  0  0  0  0  0  0
   -4.8000    0.5979    1.6558 H   0  0  0  0  0  0  0  0  0  0  0  0
   -2.3562    1.0282    0.2143 H   0  0  0  0  0  0  0  0  0  0  0  0
   -2.4616   -1.5595   -0.2096 H   0  0  0  0  0  0  0  0  0  0  0  0
   -3.8145   -1.6123    0.8866 H   0  0  0  0  0  0  0  0  0  0  0  0
   -2.5709    0.0109   -2.2798 H   0  0  0  0  0  0  0  0  0  0  0  0
   -4.0525    0.6249   -4.1560 H   0  0  0  0  0  0  0  0  0  0  0  0
   -6.5105    0.3757   -3.9400 H   0  0  0  0  0  0  0  0  0  0  0  0
   -7.4875   -0.4956   -1.8335 H   0  0  0  0  0  0  0  0  0  0  0  0
   -6.0248   -1.1128    0.0547 H   0  0  0  0  0  0  0  0  0  0  0  0
    0.3391    0.0199    2.4329 H   0  0  0  0  0  0  0  0  0  0  0  0
   -0.2621    1.3412    1.4348 H   0  0  0  0  0  0  0  0  0  0  0  0
   -0.3730   -0.2187   -0.5307 H   0  0  0  0  0  0  0  0  0  0  0  0
    0.1196   -1.5619    0.4977 H   0  0  0  0  0  0  0  0  0  0  0  0
    1.7778    0.9531   -0.0448 H   0  0  0  0  0  0  0  0  0  0  0  0
    2.2837   -0.3978    0.9701 H   0  0  0  0  0  0  0  0  0  0  0  0
    1.5861   -0.6181   -2.0098 H   0  0  0  0  0  0  0  0  0  0  0  0
    2.1026   -1.9469   -0.9856 H   0  0  0  0  0  0  0  0  0  0  0  0
    3.9121   -1.2579   -2.3544 H   0  0  0  0  0  0  0  0  0  0  0  0
    3.4661    0.9372   -3.0392 H   0  0  0  0  0  0  0  0  0  0  0  0
    3.3699    1.5815   -1.4087 H   0  0  0  0  0  0  0  0  0  0  0  0
    5.5111    2.2056   -2.5131 H   0  0  0  0  0  0  0  0  0  0  0  0
    5.9011    0.5055   -2.7233 H   0  0  0  0  0  0  0  0  0  0  0  0
    7.0511    0.8705   -0.7713 H   0  0  0  0  0  0  0  0  0  0  0  0
    6.0220    2.1926   -0.2552 H   0  0  0  0  0  0  0  0  0  0  0  0
    4.4775    0.8179    0.8032 H   0  0  0  0  0  0  0  0  0  0  0  0
    5.9706   -0.0600    1.0889 H   0  0  0  0  0  0  0  0  0  0  0  0
    5.5040   -1.5368   -0.8369 H   0  0  0  0  0  0  0  0  0  0  0  0
    4.2150   -1.6279    0.3411 H   0  0  0  0  0  0  0  0  0  0  0  0
  1  2  1  0
  2  3  2  0
  3  4  1  0
  4  5  1  0
  5  6  1  0
  6  7  1  0
  7  8  2  0
  8  9  1  0
  9 10  2  0
 10 11  1  0
 11 12  2  0
  5 13  1  0
 13 14  1  0
 14 15  1  0
 15 16  1  0
 16 17  1  0
 17 18  1  0
 18 19  1  0
 19 20  1  0
 20 21  1  0
 21 22  1  0
 22 23  1  0
 13  2  1  0
 23 18  1  0
 12  7  1  0
  1 24  1  0
  1 25  1  0
  4 26  1  0
  4 27  1  0
  5 28  1  0
  6 29  1  0
  6 30  1  0
  8 31  1  0
  9 32  1  0
 10 33  1  0
 11 34  1  0
 12 35  1  0
 14 36  1  0
 14 37  1  0
 15 38  1  0
 15 39  1  0
 16 40  1  0
 16 41  1  0
 17 42  1  0
 17 43  1  0
 18 44  1  0
 19 45  1  0
 19 46  1  0
 20 47  1  0
 20 48  1  0
 21 49  1  0
 21 50  1  0
 22 51  1  0
 22 52  1  0
 23 53  1  0
 23 54  1  0
M  END
$$$$
