
     RDKit          3D

 37 38  0  0  0  0  0  0  0  0999 V2000
   -4.4005    0.3323   -2.1895 C   0  0  0  0  0  0  0  0  0  0  0  0
   -4.2006    0.2473   -0.7459 N   0  0  0  0  0  0  0  0  0  0  0  0
   -3.8424    1.5679   -0.1870 C   0  0  0  0  0  0  0  0  0  0  0  0
   -3.0700    1.4846    1.1401 C   0  0  0  0  0  0  0  0  0  0  0  0
   -1.8175    0.7412    0.9879 N   0  0  0  0  0  0  0  0  0  0  0  0
   -0.8047    0.9707    1.8965 C   0  0  0  0  0  0  0  0  0  0  0  0
   -0.9135    1.7072    2.8731 O   0  0  0  0  0  0  0  0  0  0  0  0
    0.4791    0.2632    1.6878 C   0  0  0  0  0  0  0  0  0  0  0  0
    1.2298    0.5238    0.6068 C   0  0  0  0  0  0  0  0  0  0  0  0
    2.5346   -0.0963    0.3444 C   0  0  0  0  0  0  0  0  0  0  0  0
    3.4506   -0.3756    1.3694 C   0  0  0  0  0  0  0  0  0  0  0  0
    4.6965   -0.9426    1.0800 C   0  0  0  0  0  0  0  0  0  0  0  0
    5.0350   -1.2235   -0.2486 C   0  0  0  0  0  0  0  0  0  0  0  0
    6.3407   -1.8191   -0.5587 N   0  0  0  0  0  4  0  0  0  0  0  0
    7.1036   -2.0613    0.3873 O   0  0  0  0  0  0  0  0  0  0  0  0
    6.6019   -2.0465   -1.7488 O   0  0  0  0  0  1  0  0  0  0  0  0
    4.1390   -0.9352   -1.2847 C   0  0  0  0  0  0  0  0  0  0  0  0
    2.8965   -0.3678   -0.9833 C   0  0  0  0  0  0  0  0  0  0  0  0
   -1.8137   -0.3049   -0.0431 C   0  0  0  0  0  0  0  0  0  0  0  0
   -3.2332   -0.8039   -0.3778 C   0  0  0  0  0  0  0  0  0  0  0  0
   -4.7823   -0.6170   -2.5811 H   0  0  0  0  0  0  0  0  0  0  0  0
   -3.4733    0.5764   -2.7203 H   0  0  0  0  0  0  0  0  0  0  0  0
   -5.1495    1.0946   -2.4310 H   0  0  0  0  0  0  0  0  0  0  0  0
   -4.7600    2.1479   -0.0371 H   0  0  0  0  0  0  0  0  0  0  0  0
   -3.2176    2.1247   -0.8991 H   0  0  0  0  0  0  0  0  0  0  0  0
   -2.8546    2.4934    1.5102 H   0  0  0  0  0  0  0  0  0  0  0  0
   -3.6678    0.9731    1.9044 H   0  0  0  0  0  0  0  0  0  0  0  0
    0.7814   -0.3933    2.4934 H   0  0  0  0  0  0  0  0  0  0  0  0
    0.8757    1.2284   -0.1433 H   0  0  0  0  0  0  0  0  0  0  0  0
    3.2131   -0.1424    2.4059 H   0  0  0  0  0  0  0  0  0  0  0  0
    5.3859   -1.1496    1.8963 H   0  0  0  0  0  0  0  0  0  0  0  0
    4.3897   -1.1410   -2.3234 H   0  0  0  0  0  0  0  0  0  0  0  0
    2.2101   -0.1451   -1.7985 H   0  0  0  0  0  0  0  0  0  0  0  0
   -1.3497    0.1241   -0.9389 H   0  0  0  0  0  0  0  0  0  0  0  0
   -1.2018   -1.1507    0.2862 H   0  0  0  0  0  0  0  0  0  0  0  0
   -3.1778   -1.5850   -1.1461 H   0  0  0  0  0  0  0  0  0  0  0  0
   -3.6328   -1.2998    0.5166 H   0  0  0  0  0  0  0  0  0  0  0  0
  1  2  1  0
  2  3  1  0
  3  4  1  0
  4  5  1  0
  5  6  1  0
  6  7  2  0
  6  8  1  0
  8  9  2  3
  9 10  1  0
 10 11  2  0
 11 12  1  0
 12 13  2  0
 13 14  1  0
 14 15  2  0
 14 16  1  0
 13 17  1  0
 17 18  2  0
  5 19  1  0
 19 20  1  0
 20  2  1  0
 18 10  1  0
  1 21  1  0
  1 22  1  0
  1 23  1  0
  3 24  1  0
  3 25  1  0
  4 26  1  0
  4 27  1  0
  8 28  1  0
  9 29  1  0
 11 30  1  0
 12 31  1  0
 17 32  1  0
 18 33  1  0
 19 34  1  0
 19 35  1  0
 20 36  1  0
 20 37  1  0
M  CHG  2  14   1  16  -1
M  END
$$$$
