
     RDKit          3D

 53 56  0  0  0  0  0  0  0  0999 V2000
    7.0508   -0.4539    0.2824 C   0  0  0  0  0  0  0  0  0  0  0  0
    5.8767    0.2023    0.7396 O   0  0  0  0  0  0  0  0  0  0  0  0
    5.3486    1.0949   -0.2437 C   0  0  0  0  0  0  0  0  0  0  0  0
    4.0158    1.6692    0.2314 C   0  0  0  0  0  0  0  0  0  0  0  0
    2.8912    0.7782   -0.0499 N   0  0  0  0  0  0  0  0  0  0  0  0
    2.0930    0.8602   -1.1733 C   0  0  0  0  0  0  0  0  0  0  0  0
    2.2715    1.8701   -2.2520 C   0  0  0  0  0  0  0  0  0  0  0  0
    1.1427   -0.1345   -1.0768 C   0  0  0  0  0  0  0  0  0  0  0  0
    1.3507   -0.8547    0.1324 C   0  0  0  0  0  0  0  0  0  0  0  0
    0.5888   -2.0063    0.6576 C   0  0  0  0  0  0  0  0  0  0  0  0
    0.9608   -2.6166    1.6642 O   0  0  0  0  0  0  0  0  0  0  0  0
   -0.6438   -2.4846   -0.0962 C   0  0  0  0  0  0  0  0  0  0  0  0
   -2.1540   -2.3879    0.9173 S   0  0  0  0  0  0  0  0  0  0  0  0
   -2.4586   -0.6543    0.7934 C   0  0  0  0  0  0  0  0  0  0  0  0
   -1.4781    0.1937    1.1506 N   0  0  0  0  0  0  0  0  0  0  0  0
   -1.6806    1.5163    1.0256 C   0  0  0  0  0  0  0  0  0  0  0  0
   -0.5524    2.4169    1.4232 C   0  0  0  0  0  0  0  0  0  0  0  0
   -2.7880    2.1002    0.5515 N   0  0  0  0  0  0  0  0  0  0  0  0
   -3.7497    1.2228    0.2194 C   0  0  0  0  0  0  0  0  0  0  0  0
   -5.2538    1.7838   -0.4031 S   0  0  0  0  0  0  0  0  0  0  0  0
   -5.8046    0.2130   -0.5325 C   0  0  0  0  0  0  0  0  0  0  0  0
   -4.9048   -0.7337   -0.1234 C   0  0  0  0  0  0  0  0  0  0  0  0
   -3.6761   -0.1669    0.3149 C   0  0  0  0  0  0  0  0  0  0  0  0
   -5.4830   -2.0975   -0.2516 C   0  0  0  0  0  0  0  0  0  0  0  0
   -7.0008   -1.7961   -0.4571 C   0  0  0  0  0  0  0  0  0  0  0  0
   -7.0984   -0.3365   -0.9954 C   0  0  0  0  0  0  0  0  0  0  0  0
    2.4408   -0.2490    0.7591 C   0  0  0  0  0  0  0  0  0  0  0  0
    3.0722   -0.6121    2.0662 C   0  0  0  0  0  0  0  0  0  0  0  0
    7.8261    0.2774    0.0317 H   0  0  0  0  0  0  0  0  0  0  0  0
    7.4200   -1.0961    1.0868 H   0  0  0  0  0  0  0  0  0  0  0  0
    6.8245   -1.0771   -0.5882 H   0  0  0  0  0  0  0  0  0  0  0  0
    6.0643    1.9150   -0.3689 H   0  0  0  0  0  0  0  0  0  0  0  0
    5.2379    0.5782   -1.2042 H   0  0  0  0  0  0  0  0  0  0  0  0
    3.8161    2.6133   -0.2849 H   0  0  0  0  0  0  0  0  0  0  0  0
    4.0172    1.8913    1.3019 H   0  0  0  0  0  0  0  0  0  0  0  0
    3.3046    1.8897   -2.6087 H   0  0  0  0  0  0  0  0  0  0  0  0
    2.0027    2.8666   -1.8883 H   0  0  0  0  0  0  0  0  0  0  0  0
    1.6290    1.6423   -3.1091 H   0  0  0  0  0  0  0  0  0  0  0  0
    0.3754   -0.3060   -1.8196 H   0  0  0  0  0  0  0  0  0  0  0  0
   -0.4729   -3.5351   -0.3580 H   0  0  0  0  0  0  0  0  0  0  0  0
   -0.8041   -1.9535   -1.0362 H   0  0  0  0  0  0  0  0  0  0  0  0
   -0.0841    2.8419    0.5306 H   0  0  0  0  0  0  0  0  0  0  0  0
   -0.9242    3.2332    2.0492 H   0  0  0  0  0  0  0  0  0  0  0  0
    0.2068    1.8704    1.9898 H   0  0  0  0  0  0  0  0  0  0  0  0
   -5.0714   -2.6063   -1.1302 H   0  0  0  0  0  0  0  0  0  0  0  0
   -5.3277   -2.7154    0.6362 H   0  0  0  0  0  0  0  0  0  0  0  0
   -7.5063   -1.8473    0.5174 H   0  0  0  0  0  0  0  0  0  0  0  0
   -7.4845   -2.5202   -1.1181 H   0  0  0  0  0  0  0  0  0  0  0  0
   -7.1545   -0.3336   -2.0888 H   0  0  0  0  0  0  0  0  0  0  0  0
   -7.9645    0.1837   -0.5801 H   0  0  0  0  0  0  0  0  0  0  0  0
    3.6514   -1.5331    1.9562 H   0  0  0  0  0  0  0  0  0  0  0  0
    3.7376    0.1590    2.4588 H   0  0  0  0  0  0  0  0  0  0  0  0
    2.3038   -0.7750    2.8299 H   0  0  0  0  0  0  0  0  0  0  0  0
  1  2  1  0
  2  3  1  0
  3  4  1  0
  4  5  1  0
  5  6  1  0
  6  7  1  0
  6  8  2  0
  8  9  1  0
  9 10  1  0
 10 11  2  0
 10 12  1  0
 12 13  1  0
 13 14  1  0
 14 15  2  0
 15 16  1  0
 16 17  1  0
 16 18  2  0
 18 19  1  0
 19 20  1  0
 20 21  1  0
 21 22  2  0
 22 23  1  0
 22 24  1  0
 24 25  1  0
 25 26  1  0
  9 27  2  0
 27 28  1  0
 27  5  1  0
 23 14  1  0
 23 19  2  0
 26 21  1  0
  1 29  1  0
  1 30  1  0
  1 31  1  0
  3 32  1  0
  3 33  1  0
  4 34  1  0
  4 35  1  0
  7 36  1  0
  7 37  1  0
  7 38  1  0
  8 39  1  0
 12 40  1  0
 12 41  1  0
 17 42  1  0
 17 43  1  0
 17 44  1  0
 24 45  1  0
 24 46  1  0
 25 47  1  0
 25 48  1  0
 26 49  1  0
 26 50  1  0
 28 51  1  0
 28 52  1  0
 28 53  1  0
M  END
$$$$
