
     RDKit          3D

 47 50  0  0  0  0  0  0  0  0999 V2000
   -0.6715    6.3587   -2.2736 C   0  0  0  0  0  0  0  0  0  0  0  0
   -0.3062    4.9542   -2.6588 C   0  0  0  0  0  0  0  0  0  0  0  0
   -0.7382    4.4257   -3.8799 C   0  0  0  0  0  0  0  0  0  0  0  0
   -0.4402    3.1113   -4.2552 C   0  0  0  0  0  0  0  0  0  0  0  0
    0.2993    2.3327   -3.3597 C   0  0  0  0  0  0  0  0  0  0  0  0
    0.7285    1.0256   -3.4669 N   0  0  0  0  0  0  0  0  0  0  0  0
    1.4162    0.6777   -2.3404 C   0  0  0  0  0  0  0  0  0  0  0  0
    2.0326   -0.5780   -2.0323 C   0  0  0  0  0  0  0  0  0  0  0  0
    1.9949   -1.5388   -2.7929 O   0  0  0  0  0  0  0  0  0  0  0  0
    2.6714   -0.5761   -0.7769 N   0  0  0  0  0  0  0  0  0  0  0  0
    3.3308   -1.7979   -0.3213 C   0  0  0  0  0  0  0  0  0  0  0  0
    2.4055   -2.6835    0.5156 C   0  0  0  0  0  0  0  0  0  0  0  0
    2.6891   -3.8490    0.7844 O   0  0  0  0  0  0  0  0  0  0  0  0
    1.2920   -2.0450    1.0248 N   0  0  0  0  0  0  0  0  0  0  0  0
    0.4372   -2.6807    2.0070 C   0  0  0  0  0  0  0  0  0  0  0  0
   -0.9344   -2.0112    2.0707 C   0  0  0  0  0  0  0  0  0  0  0  0
   -1.8262   -2.6438    3.1095 C   0  0  0  0  0  0  0  0  0  0  0  0
   -1.8747   -2.1310    4.4134 C   0  0  0  0  0  0  0  0  0  0  0  0
   -2.6891   -2.7289    5.3779 C   0  0  0  0  0  0  0  0  0  0  0  0
   -3.4543   -3.8440    5.0439 C   0  0  0  0  0  0  0  0  0  0  0  0
   -4.4575   -4.5794    6.2329 Cl  0  0  0  0  0  0  0  0  0  0  0  0
   -3.4108   -4.3682    3.7542 C   0  0  0  0  0  0  0  0  0  0  0  0
   -2.5969   -3.7706    2.7893 C   0  0  0  0  0  0  0  0  0  0  0  0
    2.6736    0.5147    0.1195 N   0  0  0  0  0  0  0  0  0  0  0  0
    2.1030    1.6338   -0.2305 C   0  0  0  0  0  0  0  0  0  0  0  0
    1.4383    1.7586   -1.4958 C   0  0  0  0  0  0  0  0  0  0  0  0
    0.7376    2.8197   -2.1230 C   0  0  0  0  0  0  0  0  0  0  0  0
    0.4230    4.1474   -1.7685 C   0  0  0  0  0  0  0  0  0  0  0  0
   -0.7467    6.9996   -3.1583 H   0  0  0  0  0  0  0  0  0  0  0  0
   -1.6318    6.3645   -1.7490 H   0  0  0  0  0  0  0  0  0  0  0  0
    0.0916    6.7957   -1.6209 H   0  0  0  0  0  0  0  0  0  0  0  0
   -1.3196    5.0432   -4.5629 H   0  0  0  0  0  0  0  0  0  0  0  0
   -0.7776    2.7168   -5.2086 H   0  0  0  0  0  0  0  0  0  0  0  0
    0.5619    0.4131   -4.2555 H   0  0  0  0  0  0  0  0  0  0  0  0
    3.6715   -2.3784   -1.1845 H   0  0  0  0  0  0  0  0  0  0  0  0
    4.1974   -1.5226    0.2888 H   0  0  0  0  0  0  0  0  0  0  0  0
    1.3441   -1.0289    0.9967 H   0  0  0  0  0  0  0  0  0  0  0  0
    0.9503   -2.6158    2.9737 H   0  0  0  0  0  0  0  0  0  0  0  0
    0.3400   -3.7445    1.7603 H   0  0  0  0  0  0  0  0  0  0  0  0
   -1.4236   -2.0605    1.0890 H   0  0  0  0  0  0  0  0  0  0  0  0
   -0.8213   -0.9405    2.2857 H   0  0  0  0  0  0  0  0  0  0  0  0
   -1.2788   -1.2632    4.6877 H   0  0  0  0  0  0  0  0  0  0  0  0
   -2.7204   -2.3221    6.3850 H   0  0  0  0  0  0  0  0  0  0  0  0
   -4.0042   -5.2405    3.4936 H   0  0  0  0  0  0  0  0  0  0  0  0
   -2.5667   -4.1914    1.7859 H   0  0  0  0  0  0  0  0  0  0  0  0
    2.1156    2.4942    0.4568 H   0  0  0  0  0  0  0  0  0  0  0  0
    0.7457    4.5472   -0.8110 H   0  0  0  0  0  0  0  0  0  0  0  0
  1  2  1  0
  2  3  2  0
  3  4  1  0
  4  5  2  0
  5  6  1  0
  6  7  1  0
  7  8  1  0
  8  9  2  0
  8 10  1  0
 10 11  1  0
 11 12  1  0
 12 13  2  0
 12 14  1  0
 14 15  1  0
 15 16  1  0
 16 17  1  0
 17 18  2  0
 18 19  1  0
 19 20  2  0
 20 21  1  0
 20 22  1  0
 22 23  2  0
 10 24  1  0
 24 25  2  0
 25 26  1  0
 26 27  1  0
 27 28  2  0
 28  2  1  0
 27  5  1  0
 26  7  2  0
 23 17  1  0
  1 29  1  0
  1 30  1  0
  1 31  1  0
  3 32  1  0
  4 33  1  0
  6 34  1  0
 11 35  1  0
 11 36  1  0
 14 37  1  0
 15 38  1  0
 15 39  1  0
 16 40  1  0
 16 41  1  0
 18 42  1  0
 19 43  1  0
 22 44  1  0
 23 45  1  0
 25 46  1  0
 28 47  1  0
M  END
$$$$
