
     RDKit          3D

 46 49  0  0  0  0  0  0  0  0999 V2000
    6.7319    0.3565   -0.4230 O   0  0  0  0  0  0  0  0  0  0  0  0
    6.3420   -0.3829   -1.3415 N   0  0  0  0  0  4  0  0  0  0  0  0
    6.9378   -0.5360   -2.4198 O   0  0  0  0  0  1  0  0  0  0  0  0
    5.0920   -1.1308   -1.1379 C   0  0  0  0  0  0  0  0  0  0  0  0
    4.6955   -2.0958   -2.0750 C   0  0  0  0  0  0  0  0  0  0  0  0
    3.5049   -2.7990   -1.8719 C   0  0  0  0  0  0  0  0  0  0  0  0
    2.7178   -2.5413   -0.7441 C   0  0  0  0  0  0  0  0  0  0  0  0
    3.1093   -1.5748    0.1993 C   0  0  0  0  0  0  0  0  0  0  0  0
    2.2492   -1.2816    1.4121 C   0  0  0  0  0  0  0  0  0  0  0  0
    0.9703   -0.5626    1.1007 C   0  0  0  0  0  0  0  0  0  0  0  0
   -0.5798   -1.2478    1.5538 S   0  0  0  0  0  0  0  0  0  0  0  0
   -1.4661    0.1246    0.7967 C   0  0  0  0  0  0  0  0  0  0  0  0
   -2.7598    0.2395    0.7886 N   0  0  0  0  0  0  0  0  0  0  0  0
   -3.5830   -0.7135    1.4009 C   0  0  0  0  0  0  0  0  0  0  0  0
   -4.1364   -0.4414    2.6556 C   0  0  0  0  0  0  0  0  0  0  0  0
   -4.9946   -1.3596    3.2669 C   0  0  0  0  0  0  0  0  0  0  0  0
   -5.3149   -2.5545    2.6201 C   0  0  0  0  0  0  0  0  0  0  0  0
   -4.7802   -2.8276    1.3604 C   0  0  0  0  0  0  0  0  0  0  0  0
   -3.9256   -1.9047    0.7495 C   0  0  0  0  0  0  0  0  0  0  0  0
   -0.5185    1.0163    0.2660 N   0  0  0  0  0  0  0  0  0  0  0  0
   -0.9015    2.2759   -0.2788 C   0  0  0  0  0  0  0  0  0  0  0  0
   -1.9365    2.3698   -1.2229 C   0  0  0  0  0  0  0  0  0  0  0  0
   -2.2944    3.6002   -1.7809 C   0  0  0  0  0  0  0  0  0  0  0  0
   -1.6271    4.7607   -1.3980 C   0  0  0  0  0  0  0  0  0  0  0  0
   -0.6093    4.6956   -0.4513 C   0  0  0  0  0  0  0  0  0  0  0  0
   -0.2524    3.4645    0.1039 C   0  0  0  0  0  0  0  0  0  0  0  0
    0.8074    0.6071    0.4545 C   0  0  0  0  0  0  0  0  0  0  0  0
    1.8738    1.3124   -0.0521 O   0  0  0  0  0  0  0  0  0  0  0  0
    4.3067   -0.8687   -0.0045 C   0  0  0  0  0  0  0  0  0  0  0  0
    5.2967   -2.3082   -2.9579 H   0  0  0  0  0  0  0  0  0  0  0  0
    3.1866   -3.5502   -2.5939 H   0  0  0  0  0  0  0  0  0  0  0  0
    1.7900   -3.0981   -0.6058 H   0  0  0  0  0  0  0  0  0  0  0  0
    2.8142   -0.6927    2.1486 H   0  0  0  0  0  0  0  0  0  0  0  0
    2.0482   -2.2424    1.9086 H   0  0  0  0  0  0  0  0  0  0  0  0
   -3.8976    0.4960    3.1542 H   0  0  0  0  0  0  0  0  0  0  0  0
   -5.4213   -1.1361    4.2421 H   0  0  0  0  0  0  0  0  0  0  0  0
   -5.9860   -3.2680    3.0932 H   0  0  0  0  0  0  0  0  0  0  0  0
   -5.0351   -3.7550    0.8507 H   0  0  0  0  0  0  0  0  0  0  0  0
   -3.5233   -2.1133   -0.2383 H   0  0  0  0  0  0  0  0  0  0  0  0
   -2.4748    1.4788   -1.5398 H   0  0  0  0  0  0  0  0  0  0  0  0
   -3.1000    3.6501   -2.5065 H   0  0  0  0  0  0  0  0  0  0  0  0
   -1.9096    5.7179   -1.8281 H   0  0  0  0  0  0  0  0  0  0  0  0
   -0.1010    5.6035   -0.1350 H   0  0  0  0  0  0  0  0  0  0  0  0
    0.5245    3.4462    0.8657 H   0  0  0  0  0  0  0  0  0  0  0  0
    1.5197    1.8788   -0.7598 H   0  0  0  0  0  0  0  0  0  0  0  0
    4.6100   -0.1078    0.7153 H   0  0  0  0  0  0  0  0  0  0  0  0
  1  2  2  0
  2  3  1  0
  2  4  1  0
  4  5  2  0
  5  6  1  0
  6  7  2  0
  7  8  1  0
  8  9  1  0
  9 10  1  0
 10 11  1  0
 11 12  1  0
 12 13  2  3
 13 14  1  0
 14 15  2  0
 15 16  1  0
 16 17  2  0
 17 18  1  0
 18 19  2  0
 12 20  1  0
 20 21  1  0
 21 22  2  0
 22 23  1  0
 23 24  2  0
 24 25  1  0
 25 26  2  0
 20 27  1  0
 27 28  1  0
  8 29  2  0
 29  4  1  0
 27 10  2  0
 19 14  1  0
 26 21  1  0
  5 30  1  0
  6 31  1  0
  7 32  1  0
  9 33  1  0
  9 34  1  0
 15 35  1  0
 16 36  1  0
 17 37  1  0
 18 38  1  0
 19 39  1  0
 22 40  1  0
 23 41  1  0
 24 42  1  0
 25 43  1  0
 26 44  1  0
 28 45  1  0
 29 46  1  0
M  CHG  2   2   1   3  -1
M  END
$$$$
