
     RDKit          3D

 49 52  0  0  0  0  0  0  0  0999 V2000
    6.8270   -2.0013    1.0894 C   0  0  0  0  0  0  0  0  0  0  0  0
    6.6822   -0.6891    0.3737 C   0  0  0  0  0  0  0  0  0  0  0  0
    7.8076    0.1163    0.1420 C   0  0  0  0  0  0  0  0  0  0  0  0
    7.6760    1.3343   -0.5269 C   0  0  0  0  0  0  0  0  0  0  0  0
    9.0667    2.3094   -0.8050 Cl  0  0  0  0  0  0  0  0  0  0  0  0
    6.4303    1.7639   -0.9773 C   0  0  0  0  0  0  0  0  0  0  0  0
    5.3038    0.9717   -0.7527 C   0  0  0  0  0  0  0  0  0  0  0  0
    5.4249   -0.2404   -0.0635 C   0  0  0  0  0  0  0  0  0  0  0  0
    4.3429   -1.0678    0.1306 O   0  0  0  0  0  0  0  0  0  0  0  0
    3.2071   -0.6140    0.6685 C   0  0  0  0  0  0  0  0  0  0  0  0
    3.0566    0.5836    1.1921 N   0  0  0  0  0  0  0  0  0  0  0  0
    1.7687    0.7216    1.6704 C   0  0  0  0  0  0  0  0  0  0  0  0
    0.9478   -0.3776    1.5142 C   0  0  0  0  0  0  0  0  0  0  0  0
   -0.4787   -0.5598    1.9309 C   0  0  0  0  0  0  0  0  0  0  0  0
   -1.3619    0.4633    1.3493 N   0  0  0  0  0  0  0  0  0  0  0  0
   -2.7064    0.4307    1.9671 C   0  0  0  0  0  0  0  0  0  0  0  0
   -3.7818   -0.3808    1.2064 C   0  0  0  0  0  0  0  0  0  0  0  0
   -3.9217    0.0886   -0.1812 N   0  0  0  0  0  0  0  0  0  0  0  0
   -5.1335   -0.0014   -0.8475 C   0  0  0  0  0  0  0  0  0  0  0  0
   -6.0990   -0.9595   -0.4936 C   0  0  0  0  0  0  0  0  0  0  0  0
   -7.3248   -1.0645   -1.1632 C   0  0  0  0  0  0  0  0  0  0  0  0
   -7.6191   -0.2070   -2.2153 C   0  0  0  0  0  0  0  0  0  0  0  0
   -6.6858    0.7492   -2.5947 C   0  0  0  0  0  0  0  0  0  0  0  0
   -5.4621    0.8447   -1.9194 C   0  0  0  0  0  0  0  0  0  0  0  0
   -2.7817    0.8337   -0.7376 C   0  0  0  0  0  0  0  0  0  0  0  0
   -1.4570    0.3214   -0.1254 C   0  0  0  0  0  0  0  0  0  0  0  0
    1.8272   -1.6318    0.7429 S   0  0  0  0  0  0  0  0  0  0  0  0
    7.8716   -2.2057    1.3466 H   0  0  0  0  0  0  0  0  0  0  0  0
    6.4756   -2.8209    0.4542 H   0  0  0  0  0  0  0  0  0  0  0  0
    6.2504   -1.9901    2.0199 H   0  0  0  0  0  0  0  0  0  0  0  0
    8.7893   -0.2055    0.4815 H   0  0  0  0  0  0  0  0  0  0  0  0
    6.3280    2.7096   -1.5020 H   0  0  0  0  0  0  0  0  0  0  0  0
    4.3344    1.3075   -1.1116 H   0  0  0  0  0  0  0  0  0  0  0  0
    1.4701    1.6572    2.1291 H   0  0  0  0  0  0  0  0  0  0  0  0
   -0.4928   -0.4715    3.0258 H   0  0  0  0  0  0  0  0  0  0  0  0
   -0.8428   -1.5688    1.6975 H   0  0  0  0  0  0  0  0  0  0  0  0
   -2.6587    0.0883    3.0083 H   0  0  0  0  0  0  0  0  0  0  0  0
   -3.0507    1.4723    2.0235 H   0  0  0  0  0  0  0  0  0  0  0  0
   -3.5152   -1.4444    1.2055 H   0  0  0  0  0  0  0  0  0  0  0  0
   -4.7237   -0.2654    1.7566 H   0  0  0  0  0  0  0  0  0  0  0  0
   -5.9028   -1.6689    0.3053 H   0  0  0  0  0  0  0  0  0  0  0  0
   -8.0422   -1.8227   -0.8612 H   0  0  0  0  0  0  0  0  0  0  0  0
   -8.5683   -0.2846   -2.7375 H   0  0  0  0  0  0  0  0  0  0  0  0
   -6.9041    1.4281   -3.4146 H   0  0  0  0  0  0  0  0  0  0  0  0
   -4.7747    1.6211   -2.2422 H   0  0  0  0  0  0  0  0  0  0  0  0
   -2.7163    0.6890   -1.8227 H   0  0  0  0  0  0  0  0  0  0  0  0
   -2.9016    1.9060   -0.5409 H   0  0  0  0  0  0  0  0  0  0  0  0
   -0.6247    0.8658   -0.5864 H   0  0  0  0  0  0  0  0  0  0  0  0
   -1.3557   -0.7339   -0.4146 H   0  0  0  0  0  0  0  0  0  0  0  0
  1  2  1  0
  2  3  2  0
  3  4  1  0
  4  5  1  0
  4  6  2  0
  6  7  1  0
  7  8  2  0
  8  9  1  0
  9 10  1  0
 10 11  2  0
 11 12  1  0
 12 13  2  0
 13 14  1  0
 14 15  1  0
 15 16  1  0
 16 17  1  0
 17 18  1  0
 18 19  1  0
 19 20  2  0
 20 21  1  0
 21 22  2  0
 22 23  1  0
 23 24  2  0
 18 25  1  0
 25 26  1  0
 13 27  1  0
  8  2  1  0
 27 10  1  0
 26 15  1  0
 24 19  1  0
  1 28  1  0
  1 29  1  0
  1 30  1  0
  3 31  1  0
  6 32  1  0
  7 33  1  0
 12 34  1  0
 14 35  1  0
 14 36  1  0
 16 37  1  0
 16 38  1  0
 17 39  1  0
 17 40  1  0
 20 41  1  0
 21 42  1  0
 22 43  1  0
 23 44  1  0
 24 45  1  0
 25 46  1  0
 25 47  1  0
 26 48  1  0
 26 49  1  0
M  END
$$$$
