
     RDKit          3D

 41 43  0  0  0  0  0  0  0  0999 V2000
   -7.1019   -0.4565   -0.4589 C   0  0  0  0  0  0  0  0  0  0  0  0
   -6.4488   -0.3828    0.9103 C   0  0  0  0  0  0  0  0  0  0  0  0
   -5.6862    0.8156    1.0441 O   0  0  0  0  0  0  0  0  0  0  0  0
   -4.3734    0.8086    0.6689 C   0  0  0  0  0  0  0  0  0  0  0  0
   -3.6981   -0.2285    0.0316 C   0  0  0  0  0  0  0  0  0  0  0  0
   -2.3428   -0.0915   -0.2990 C   0  0  0  0  0  0  0  0  0  0  0  0
   -1.6415    1.0889   -0.0107 C   0  0  0  0  0  0  0  0  0  0  0  0
   -0.2410    1.2099   -0.3433 N   0  0  0  0  0  0  0  0  0  0  0  0
    0.5915    0.1673    0.1029 C   0  0  0  0  0  0  0  0  0  0  0  0
    0.1920   -0.7941    0.7652 O   0  0  0  0  0  0  0  0  0  0  0  0
    2.0495    0.2788   -0.2203 C   0  0  0  0  0  0  0  0  0  0  0  0
    2.7969   -0.7902    0.1238 C   0  0  0  0  0  0  0  0  0  0  0  0
    4.1969   -0.9595   -0.0478 C   0  0  0  0  0  0  0  0  0  0  0  0
    5.2740   -0.1495    0.2926 C   0  0  0  0  0  0  0  0  0  0  0  0
    6.4652   -0.8291   -0.0569 C   0  0  0  0  0  0  0  0  0  0  0  0
    6.0706   -2.0389   -0.5719 C   0  0  0  0  0  0  0  0  0  0  0  0
    6.7982   -3.2040   -1.1101 C   0  0  0  0  0  0  0  0  0  0  0  0
    4.7156   -2.1321   -0.5541 O   0  0  0  0  0  0  0  0  0  0  0  0
    2.5515    1.4885   -0.8962 C   0  0  0  0  0  0  0  0  0  0  0  0
    3.7131    1.7051   -1.2120 O   0  0  0  0  0  0  0  0  0  0  0  0
    1.5937    2.4081   -1.2065 N   0  0  0  0  0  0  0  0  0  0  0  0
    0.2359    2.3225   -1.0457 C   0  0  0  0  0  0  0  0  0  0  0  0
   -0.6349    3.5565   -1.7885 S   0  0  0  0  0  0  0  0  0  0  0  0
   -2.3267    2.1218    0.6411 C   0  0  0  0  0  0  0  0  0  0  0  0
   -3.6796    1.9820    0.9689 C   0  0  0  0  0  0  0  0  0  0  0  0
   -7.7090    0.4363   -0.6419 H   0  0  0  0  0  0  0  0  0  0  0  0
   -7.7438   -1.3390   -0.5336 H   0  0  0  0  0  0  0  0  0  0  0  0
   -6.3554   -0.5006   -1.2573 H   0  0  0  0  0  0  0  0  0  0  0  0
   -7.2398   -0.3314    1.6672 H   0  0  0  0  0  0  0  0  0  0  0  0
   -5.8672   -1.2808    1.1462 H   0  0  0  0  0  0  0  0  0  0  0  0
   -4.1892   -1.1591   -0.2308 H   0  0  0  0  0  0  0  0  0  0  0  0
   -1.8483   -0.9222   -0.7981 H   0  0  0  0  0  0  0  0  0  0  0  0
    2.3149   -1.6677    0.5526 H   0  0  0  0  0  0  0  0  0  0  0  0
    5.2055    0.8329    0.7393 H   0  0  0  0  0  0  0  0  0  0  0  0
    7.4811   -0.4791    0.0585 H   0  0  0  0  0  0  0  0  0  0  0  0
    6.5038   -3.3939   -2.1468 H   0  0  0  0  0  0  0  0  0  0  0  0
    7.8794   -3.0365   -1.0881 H   0  0  0  0  0  0  0  0  0  0  0  0
    6.5797   -4.0985   -0.5188 H   0  0  0  0  0  0  0  0  0  0  0  0
    1.9359    3.2078   -1.7264 H   0  0  0  0  0  0  0  0  0  0  0  0
   -1.8217    3.0387    0.9334 H   0  0  0  0  0  0  0  0  0  0  0  0
   -4.1957    2.7960    1.4734 H   0  0  0  0  0  0  0  0  0  0  0  0
  1  2  1  0
  2  3  1  0
  3  4  1  0
  4  5  2  0
  5  6  1  0
  6  7  2  0
  7  8  1  0
  8  9  1  0
  9 10  2  0
  9 11  1  0
 11 12  2  3
 12 13  1  0
 13 14  2  0
 14 15  1  0
 15 16  2  0
 16 17  1  0
 16 18  1  0
 11 19  1  0
 19 20  2  0
 19 21  1  0
 21 22  1  0
 22 23  2  0
  7 24  1  0
 24 25  2  0
 25  4  1  0
 22  8  1  0
 18 13  1  0
  1 26  1  0
  1 27  1  0
  1 28  1  0
  2 29  1  0
  2 30  1  0
  5 31  1  0
  6 32  1  0
 12 33  1  0
 14 34  1  0
 15 35  1  0
 17 36  1  0
 17 37  1  0
 17 38  1  0
 21 39  1  0
 24 40  1  0
 25 41  1  0
M  END
$$$$
