
     RDKit          3D

 55 57  0  0  0  0  0  0  0  0999 V2000
    0.1872    1.4071   -0.5462 O   0  0  0  0  0  0  0  0  0  0  0  0
    0.3033    0.2086   -0.3124 C   0  0  0  0  0  0  0  0  0  0  0  0
   -0.5902   -0.7378   -0.7660 N   0  0  0  0  0  0  0  0  0  0  0  0
   -1.7785   -0.3741   -1.5117 C   0  0  0  0  0  0  0  0  0  0  0  0
   -2.9244    0.0157   -0.5794 C   0  0  0  0  0  0  0  0  0  0  0  0
   -4.1863    0.3688   -1.3713 C   0  0  0  0  0  0  0  0  0  0  0  0
   -5.3383    0.8503   -0.4710 C   0  0  0  0  0  0  0  0  0  0  0  0
   -5.9659   -0.2562    0.3787 C   0  0  0  0  0  0  0  0  0  0  0  0
   -6.9436   -0.9655   -0.5532 C   0  0  0  0  0  0  0  0  0  0  0  0
   -7.3163    0.0532   -1.6291 C   0  0  0  0  0  0  0  0  0  0  0  0
   -6.5383    1.3225   -1.2959 C   0  0  0  0  0  0  0  0  0  0  0  0
    1.4530   -0.3690    0.4991 C   0  0  0  0  0  0  0  0  0  0  0  0
    0.9707   -0.9348    1.8296 C   0  0  0  0  0  0  0  0  0  0  0  0
    2.1385   -1.5650    2.5667 C   0  0  0  0  0  0  0  0  0  0  0  0
    3.3788   -0.6966    2.6635 C   0  0  0  0  0  0  0  0  0  0  0  0
    4.2155   -0.9297    3.5364 O   0  0  0  0  0  0  0  0  0  0  0  0
    3.5609    0.2634    1.6821 N   0  0  0  0  0  0  0  0  0  0  0  0
    4.7748    1.0762    1.7097 C   0  0  0  0  0  0  0  0  0  0  0  0
    5.7269    0.6851    0.6026 C   0  0  0  0  0  0  0  0  0  0  0  0
    6.4514   -0.5141    0.6895 C   0  0  0  0  0  0  0  0  0  0  0  0
    7.3235   -0.8922   -0.3332 C   0  0  0  0  0  0  0  0  0  0  0  0
    7.4741   -0.0738   -1.4500 C   0  0  0  0  0  0  0  0  0  0  0  0
    8.5458   -0.5395   -2.7131 Cl  0  0  0  0  0  0  0  0  0  0  0  0
    6.7609    1.1190   -1.5525 C   0  0  0  0  0  0  0  0  0  0  0  0
    5.8887    1.4978   -0.5290 C   0  0  0  0  0  0  0  0  0  0  0  0
    2.4877    0.7098    0.7944 C   0  0  0  0  0  0  0  0  0  0  0  0
   -0.4650   -1.7094   -0.5134 H   0  0  0  0  0  0  0  0  0  0  0  0
   -1.5362    0.4527   -2.1886 H   0  0  0  0  0  0  0  0  0  0  0  0
   -2.0549   -1.2430   -2.1182 H   0  0  0  0  0  0  0  0  0  0  0  0
   -3.1233   -0.8140    0.1082 H   0  0  0  0  0  0  0  0  0  0  0  0
   -2.6247    0.8708    0.0387 H   0  0  0  0  0  0  0  0  0  0  0  0
   -4.4946   -0.4974   -1.9689 H   0  0  0  0  0  0  0  0  0  0  0  0
   -3.9399    1.1676   -2.0826 H   0  0  0  0  0  0  0  0  0  0  0  0
   -4.9742    1.6659    0.1647 H   0  0  0  0  0  0  0  0  0  0  0  0
   -5.2434   -0.9488    0.8174 H   0  0  0  0  0  0  0  0  0  0  0  0
   -6.5252    0.1966    1.2075 H   0  0  0  0  0  0  0  0  0  0  0  0
   -7.8237   -1.3227   -0.0089 H   0  0  0  0  0  0  0  0  0  0  0  0
   -6.4683   -1.8384   -1.0152 H   0  0  0  0  0  0  0  0  0  0  0  0
   -7.0285   -0.3254   -2.6167 H   0  0  0  0  0  0  0  0  0  0  0  0
   -8.3941    0.2431   -1.6537 H   0  0  0  0  0  0  0  0  0  0  0  0
   -6.2557    1.8808   -2.1938 H   0  0  0  0  0  0  0  0  0  0  0  0
   -7.1670    1.9809   -0.6831 H   0  0  0  0  0  0  0  0  0  0  0  0
    1.9201   -1.1639   -0.0978 H   0  0  0  0  0  0  0  0  0  0  0  0
    0.5286   -0.1364    2.4398 H   0  0  0  0  0  0  0  0  0  0  0  0
    0.1859   -1.6858    1.6855 H   0  0  0  0  0  0  0  0  0  0  0  0
    2.4360   -2.4944    2.0663 H   0  0  0  0  0  0  0  0  0  0  0  0
    1.8213   -1.8210    3.5840 H   0  0  0  0  0  0  0  0  0  0  0  0
    5.2954    0.9782    2.6695 H   0  0  0  0  0  0  0  0  0  0  0  0
    4.4878    2.1318    1.6285 H   0  0  0  0  0  0  0  0  0  0  0  0
    6.3355   -1.1579    1.5608 H   0  0  0  0  0  0  0  0  0  0  0  0
    7.8788   -1.8225   -0.2508 H   0  0  0  0  0  0  0  0  0  0  0  0
    6.8782    1.7566   -2.4246 H   0  0  0  0  0  0  0  0  0  0  0  0
    5.3350    2.4296   -0.6226 H   0  0  0  0  0  0  0  0  0  0  0  0
    2.9309    1.0552   -0.1468 H   0  0  0  0  0  0  0  0  0  0  0  0
    2.0252    1.5806    1.2766 H   0  0  0  0  0  0  0  0  0  0  0  0
  1  2  2  0
  2  3  1  0
  3  4  1  0
  4  5  1  0
  5  6  1  0
  6  7  1  0
  7  8  1  0
  8  9  1  0
  9 10  1  0
 10 11  1  0
  2 12  1  0
 12 13  1  0
 13 14  1  0
 14 15  1  0
 15 16  2  0
 15 17  1  0
 17 18  1  0
 18 19  1  0
 19 20  2  0
 20 21  1  0
 21 22  2  0
 22 23  1  0
 22 24  1  0
 24 25  2  0
 17 26  1  0
 11  7  1  0
 26 12  1  0
 25 19  1  0
  3 27  1  0
  4 28  1  0
  4 29  1  0
  5 30  1  0
  5 31  1  0
  6 32  1  0
  6 33  1  0
  7 34  1  0
  8 35  1  0
  8 36  1  0
  9 37  1  0
  9 38  1  0
 10 39  1  0
 10 40  1  0
 11 41  1  0
 11 42  1  0
 12 43  1  0
 13 44  1  0
 13 45  1  0
 14 46  1  0
 14 47  1  0
 18 48  1  0
 18 49  1  0
 20 50  1  0
 21 51  1  0
 24 52  1  0
 25 53  1  0
 26 54  1  0
 26 55  1  0
M  END
$$$$
