
     RDKit          3D

 54 57  0  0  0  0  0  0  0  0999 V2000
    7.6520   -3.0028    2.6006 C   0  0  0  0  0  0  0  0  0  0  0  0
    6.2717   -2.7352    2.3850 O   0  0  0  0  0  0  0  0  0  0  0  0
    5.9620   -1.8614    1.3787 C   0  0  0  0  0  0  0  0  0  0  0  0
    6.8721   -1.2086    0.5510 C   0  0  0  0  0  0  0  0  0  0  0  0
    6.4105   -0.3383   -0.4379 C   0  0  0  0  0  0  0  0  0  0  0  0
    5.0406   -0.1168   -0.6061 C   0  0  0  0  0  0  0  0  0  0  0  0
    4.1175   -0.7663    0.2120 C   0  0  0  0  0  0  0  0  0  0  0  0
    2.7182   -0.5995    0.1175 N   0  0  0  0  0  0  0  0  0  0  0  0
    2.0235    0.1461   -0.8162 C   0  0  0  0  0  0  0  0  0  0  0  0
    2.5045    0.7282   -1.7833 O   0  0  0  0  0  0  0  0  0  0  0  0
    0.5392    0.1504   -0.6306 C   0  0  0  0  0  0  0  0  0  0  0  0
   -0.0229    0.1459    0.5906 C   0  0  0  0  0  0  0  0  0  0  0  0
   -1.4635    0.1305    0.7981 C   0  0  0  0  0  0  0  0  0  0  0  0
   -1.9987    0.0664    2.1877 C   0  0  0  0  0  0  0  0  0  0  0  0
   -1.2157    0.0073    3.1390 O   0  0  0  0  0  0  0  0  0  0  0  0
   -3.3756    0.0677    2.3112 N   0  0  0  0  0  0  0  0  0  0  0  0
   -3.9519    0.0251    3.5765 C   0  0  0  0  0  0  0  0  0  0  0  0
   -5.2798    0.0134    3.7457 C   0  0  0  0  0  0  0  0  0  0  0  0
   -6.1477    0.0432    2.5991 C   0  0  0  0  0  0  0  0  0  0  0  0
   -5.6356    0.0820    1.3634 C   0  0  0  0  0  0  0  0  0  0  0  0
   -4.1574    0.0962    1.1718 C   0  0  0  0  0  0  0  0  0  0  0  0
   -3.6908    0.1328   -0.0341 N   0  0  0  0  0  0  0  0  0  0  0  0
   -2.3295    0.1588   -0.2397 C   0  0  0  0  0  0  0  0  0  0  0  0
   -1.8044    0.2178   -1.5536 N   0  0  0  0  0  0  0  0  0  0  0  0
   -2.7325    0.2927   -2.7009 C   0  0  0  0  0  0  0  0  0  0  0  0
   -3.3093    1.7101   -2.8977 C   0  0  0  0  0  0  0  0  0  0  0  0
   -4.4222    1.6722   -3.9484 C   0  0  0  0  0  0  0  0  0  0  0  0
   -2.2433    2.7247   -3.3142 C   0  0  0  0  0  0  0  0  0  0  0  0
   -0.4214    0.2415   -1.7944 C   0  0  0  0  0  0  0  0  0  0  0  0
    0.0327    0.3412   -3.0127 N   0  0  0  0  0  0  0  0  0  0  0  0
    4.5916   -1.6349    1.2047 C   0  0  0  0  0  0  0  0  0  0  0  0
    8.1063   -3.4679    1.7195 H   0  0  0  0  0  0  0  0  0  0  0  0
    8.1896   -2.0940    2.8908 H   0  0  0  0  0  0  0  0  0  0  0  0
    7.7290   -3.7137    3.4290 H   0  0  0  0  0  0  0  0  0  0  0  0
    7.9430   -1.3514    0.6466 H   0  0  0  0  0  0  0  0  0  0  0  0
    7.1193    0.1740   -1.0843 H   0  0  0  0  0  0  0  0  0  0  0  0
    4.7323    0.5733   -1.3851 H   0  0  0  0  0  0  0  0  0  0  0  0
    2.1788   -1.1407    0.7808 H   0  0  0  0  0  0  0  0  0  0  0  0
    0.5866    0.1639    1.4905 H   0  0  0  0  0  0  0  0  0  0  0  0
   -3.2765    0.0020    4.4283 H   0  0  0  0  0  0  0  0  0  0  0  0
   -5.7210   -0.0193    4.7368 H   0  0  0  0  0  0  0  0  0  0  0  0
   -7.2211    0.0330    2.7600 H   0  0  0  0  0  0  0  0  0  0  0  0
   -6.2534    0.1053    0.4743 H   0  0  0  0  0  0  0  0  0  0  0  0
   -2.2563   -0.0496   -3.6281 H   0  0  0  0  0  0  0  0  0  0  0  0
   -3.5532   -0.4194   -2.5400 H   0  0  0  0  0  0  0  0  0  0  0  0
   -3.7535    2.0610   -1.9585 H   0  0  0  0  0  0  0  0  0  0  0  0
   -4.8666    2.6643   -4.0814 H   0  0  0  0  0  0  0  0  0  0  0  0
   -5.2215    0.9884   -3.6436 H   0  0  0  0  0  0  0  0  0  0  0  0
   -4.0410    1.3384   -4.9195 H   0  0  0  0  0  0  0  0  0  0  0  0
   -1.7378    2.4162   -4.2353 H   0  0  0  0  0  0  0  0  0  0  0  0
   -2.6930    3.7078   -3.4915 H   0  0  0  0  0  0  0  0  0  0  0  0
   -1.4886    2.8509   -2.5320 H   0  0  0  0  0  0  0  0  0  0  0  0
    1.0652    0.4017   -3.0131 H   0  0  0  0  0  0  0  0  0  0  0  0
    3.8995   -2.1546    1.8626 H   0  0  0  0  0  0  0  0  0  0  0  0
  1  2  1  0
  2  3  1  0
  3  4  2  0
  4  5  1  0
  5  6  2  0
  6  7  1  0
  7  8  1  0
  8  9  1  0
  9 10  2  0
  9 11  1  0
 11 12  2  0
 12 13  1  0
 13 14  1  0
 14 15  2  0
 14 16  1  0
 16 17  1  0
 17 18  2  0
 18 19  1  0
 19 20  2  0
 20 21  1  0
 21 22  2  0
 22 23  1  0
 23 24  1  0
 24 25  1  0
 25 26  1  0
 26 27  1  0
 26 28  1  0
 24 29  1  0
 29 30  2  3
  7 31  2  0
 31  3  1  0
 29 11  1  0
 23 13  2  0
 21 16  1  0
  1 32  1  0
  1 33  1  0
  1 34  1  0
  4 35  1  0
  5 36  1  0
  6 37  1  0
  8 38  1  0
 12 39  1  0
 17 40  1  0
 18 41  1  0
 19 42  1  0
 20 43  1  0
 25 44  1  0
 25 45  1  0
 26 46  1  0
 27 47  1  0
 27 48  1  0
 27 49  1  0
 28 50  1  0
 28 51  1  0
 28 52  1  0
 30 53  1  0
 31 54  1  0
M  END
$$$$
