
     RDKit          3D

 48 50  0  0  0  0  0  0  0  0999 V2000
   -2.5042    1.9401   -0.8631 O   0  0  0  0  0  0  0  0  0  0  0  0
   -2.3142    0.8068   -0.4081 C   0  0  0  0  0  0  0  0  0  0  0  0
   -0.9978    0.4838    0.3055 C   0  0  0  0  0  0  0  0  0  0  0  0
    0.1359    0.8985   -0.5507 N   0  0  0  0  0  0  0  0  0  0  0  0
    1.1149    1.7887   -0.0097 C   0  0  0  0  0  0  0  0  0  0  0  0
    1.4669    2.9252   -0.7331 C   0  0  0  0  0  0  0  0  0  0  0  0
    2.4638    3.7767   -0.2558 C   0  0  0  0  0  0  0  0  0  0  0  0
    3.1220    3.4892    0.9440 C   0  0  0  0  0  0  0  0  0  0  0  0
    4.3547    4.5808    1.4588 Cl  0  0  0  0  0  0  0  0  0  0  0  0
    2.7870    2.3466    1.6810 C   0  0  0  0  0  0  0  0  0  0  0  0
    3.4900    2.0031    2.9658 C   0  0  0  0  0  0  0  0  0  0  0  0
    2.9936    0.8739    3.5528 F   0  0  0  0  0  0  0  0  0  0  0  0
    3.3830    2.9733    3.9133 F   0  0  0  0  0  0  0  0  0  0  0  0
    4.8189    1.7648    2.7982 F   0  0  0  0  0  0  0  0  0  0  0  0
    1.7763    1.4974    1.1870 C   0  0  0  0  0  0  0  0  0  0  0  0
    0.6283   -0.1771   -1.7720 S   0  0  0  0  0  6  0  0  0  0  0  0
   -0.5085   -0.9912   -2.1529 O   0  0  0  0  0  0  0  0  0  0  0  0
    1.3978    0.5391   -2.7678 O   0  0  0  0  0  0  0  0  0  0  0  0
    1.7665   -1.2527   -0.9123 C   0  0  0  0  0  0  0  0  0  0  0  0
    3.1277   -0.9289   -0.8815 C   0  0  0  0  0  0  0  0  0  0  0  0
    4.0187   -1.7668   -0.2122 C   0  0  0  0  0  0  0  0  0  0  0  0
    3.5539   -2.9300    0.4033 C   0  0  0  0  0  0  0  0  0  0  0  0
    2.2001   -3.2659    0.3435 C   0  0  0  0  0  0  0  0  0  0  0  0
    1.3016   -2.4317   -0.3218 C   0  0  0  0  0  0  0  0  0  0  0  0
   -3.2986   -0.1659   -0.4782 N   0  0  0  0  0  0  0  0  0  0  0  0
   -3.1482   -1.5715   -0.0930 C   0  0  0  0  0  0  0  0  0  0  0  0
   -4.1856   -2.4621   -0.7853 C   0  0  0  0  0  0  0  0  0  0  0  0
   -5.5323   -2.0636   -0.5090 O   0  0  0  0  0  0  0  0  0  0  0  0
   -5.7213   -0.6415   -0.4586 C   0  0  0  0  0  0  0  0  0  0  0  0
   -4.5870    0.1736   -1.0884 C   0  0  0  0  0  0  0  0  0  0  0  0
   -1.0171    1.0594    1.2394 H   0  0  0  0  0  0  0  0  0  0  0  0
   -0.8961   -0.5594    0.6021 H   0  0  0  0  0  0  0  0  0  0  0  0
    0.9668    3.1521   -1.6733 H   0  0  0  0  0  0  0  0  0  0  0  0
    2.7258    4.6614   -0.8325 H   0  0  0  0  0  0  0  0  0  0  0  0
    1.5216    0.5934    1.7381 H   0  0  0  0  0  0  0  0  0  0  0  0
    3.4983   -0.0307   -1.3720 H   0  0  0  0  0  0  0  0  0  0  0  0
    5.0775   -1.5195   -0.1777 H   0  0  0  0  0  0  0  0  0  0  0  0
    4.2530   -3.5852    0.9185 H   0  0  0  0  0  0  0  0  0  0  0  0
    1.8506   -4.1859    0.8068 H   0  0  0  0  0  0  0  0  0  0  0  0
    0.2543   -2.7136   -0.3833 H   0  0  0  0  0  0  0  0  0  0  0  0
   -3.2815   -1.6100    0.9939 H   0  0  0  0  0  0  0  0  0  0  0  0
   -2.1458   -1.9282   -0.3345 H   0  0  0  0  0  0  0  0  0  0  0  0
   -4.0729   -3.4990   -0.4533 H   0  0  0  0  0  0  0  0  0  0  0  0
   -4.0430   -2.4500   -1.8724 H   0  0  0  0  0  0  0  0  0  0  0  0
   -6.6714   -0.4160   -0.9534 H   0  0  0  0  0  0  0  0  0  0  0  0
   -5.8305   -0.3712    0.5980 H   0  0  0  0  0  0  0  0  0  0  0  0
   -4.5000   -0.0540   -2.1574 H   0  0  0  0  0  0  0  0  0  0  0  0
   -4.7936    1.2439   -0.9866 H   0  0  0  0  0  0  0  0  0  0  0  0
  1  2  2  0
  2  3  1  0
  3  4  1  0
  4  5  1  0
  5  6  2  0
  6  7  1  0
  7  8  2  0
  8  9  1  0
  8 10  1  0
 10 11  1  0
 11 12  1  0
 11 13  1  0
 11 14  1  0
 10 15  2  0
  4 16  1  0
 16 17  2  0
 16 18  2  0
 16 19  1  0
 19 20  2  0
 20 21  1  0
 21 22  2  0
 22 23  1  0
 23 24  2  0
  2 25  1  0
 25 26  1  0
 26 27  1  0
 27 28  1  0
 28 29  1  0
 29 30  1  0
 15  5  1  0
 24 19  1  0
 30 25  1  0
  3 31  1  0
  3 32  1  0
  6 33  1  0
  7 34  1  0
 15 35  1  0
 20 36  1  0
 21 37  1  0
 22 38  1  0
 23 39  1  0
 24 40  1  0
 26 41  1  0
 26 42  1  0
 27 43  1  0
 27 44  1  0
 29 45  1  0
 29 46  1  0
 30 47  1  0
 30 48  1  0
M  END
$$$$
