
     RDKit          3D

 58 61  0  0  0  0  0  0  0  0999 V2000
   -0.0333   -3.4096   -0.0889 O   0  0  0  0  0  0  0  0  0  0  0  0
   -0.4090   -2.4607    0.5967 C   0  0  0  0  0  0  0  0  0  0  0  0
    0.5551   -1.7499    1.5577 C   0  0  0  0  0  0  0  0  0  0  0  0
    0.6639   -0.3151    1.2087 N   0  0  0  0  0  0  0  0  0  0  0  0
    1.3579   -0.1082   -0.0850 C   0  0  0  0  0  0  0  0  0  0  0  0
    2.8783   -0.3734   -0.0651 C   0  0  0  0  0  0  0  0  0  0  0  0
    3.5299    0.4651    0.9914 N   0  0  0  0  0  0  0  0  0  0  0  0
    5.2402    0.3524    1.0430 S   0  0  0  0  0  6  0  0  0  0  0  0
    5.7041    1.2626    2.0702 O   0  0  0  0  0  0  0  0  0  0  0  0
    5.5596   -1.0568    1.0967 O   0  0  0  0  0  0  0  0  0  0  0  0
    5.7219    1.0416   -0.5043 C   0  0  0  0  0  0  0  0  0  0  0  0
    5.3545    2.3626   -0.7986 C   0  0  0  0  0  0  0  0  0  0  0  0
    5.7226    2.9279   -2.0207 C   0  0  0  0  0  0  0  0  0  0  0  0
    6.4624    2.1813   -2.9385 C   0  0  0  0  0  0  0  0  0  0  0  0
    6.8358    0.8714   -2.6331 C   0  0  0  0  0  0  0  0  0  0  0  0
    6.4644    0.3047   -1.4151 C   0  0  0  0  0  0  0  0  0  0  0  0
    6.8551   -0.9505   -1.1631 F   0  0  0  0  0  0  0  0  0  0  0  0
    2.9022    0.2040    2.3265 C   0  0  0  0  0  0  0  0  0  0  0  0
    1.3789    0.4405    2.2607 C   0  0  0  0  0  0  0  0  0  0  0  0
   -1.6685   -1.8896    0.6089 N   0  0  0  0  0  0  0  0  0  0  0  0
   -2.8312   -2.2806   -0.0903 C   0  0  0  0  0  0  0  0  0  0  0  0
   -2.8718   -3.4261   -0.8930 C   0  0  0  0  0  0  0  0  0  0  0  0
   -4.0477   -3.8018   -1.5504 C   0  0  0  0  0  0  0  0  0  0  0  0
   -5.2043   -3.0434   -1.4095 C   0  0  0  0  0  0  0  0  0  0  0  0
   -5.1862   -1.8962   -0.6188 C   0  0  0  0  0  0  0  0  0  0  0  0
   -4.0022   -1.4985    0.0262 C   0  0  0  0  0  0  0  0  0  0  0  0
   -4.0089   -0.2619    0.8596 C   0  0  0  0  0  0  0  0  0  0  0  0
   -3.3169   -0.2054    1.8740 O   0  0  0  0  0  0  0  0  0  0  0  0
   -4.8230    0.9200    0.4855 C   0  0  0  0  0  0  0  0  0  0  0  0
   -5.4469    1.6507    1.5035 C   0  0  0  0  0  0  0  0  0  0  0  0
   -6.2117    2.7742    1.1875 C   0  0  0  0  0  0  0  0  0  0  0  0
   -6.3412    3.1755   -0.1429 C   0  0  0  0  0  0  0  0  0  0  0  0
   -5.7018    2.4611   -1.1584 C   0  0  0  0  0  0  0  0  0  0  0  0
   -4.9380    1.3339   -0.8477 C   0  0  0  0  0  0  0  0  0  0  0  0
    1.5195   -2.2688    1.5463 H   0  0  0  0  0  0  0  0  0  0  0  0
    0.1333   -1.8653    2.5640 H   0  0  0  0  0  0  0  0  0  0  0  0
    0.8927   -0.7068   -0.8768 H   0  0  0  0  0  0  0  0  0  0  0  0
    1.1943    0.9369   -0.3805 H   0  0  0  0  0  0  0  0  0  0  0  0
    3.0815   -1.4352    0.1127 H   0  0  0  0  0  0  0  0  0  0  0  0
    3.2788   -0.1086   -1.0490 H   0  0  0  0  0  0  0  0  0  0  0  0
    4.7950    2.9514   -0.0758 H   0  0  0  0  0  0  0  0  0  0  0  0
    5.4431    3.9534   -2.2515 H   0  0  0  0  0  0  0  0  0  0  0  0
    6.7581    2.6214   -3.8880 H   0  0  0  0  0  0  0  0  0  0  0  0
    7.4306    0.2893   -3.3326 H   0  0  0  0  0  0  0  0  0  0  0  0
    3.1163   -0.8215    2.6484 H   0  0  0  0  0  0  0  0  0  0  0  0
    3.3203    0.8934    3.0683 H   0  0  0  0  0  0  0  0  0  0  0  0
    0.9330    0.2346    3.2415 H   0  0  0  0  0  0  0  0  0  0  0  0
    1.2029    1.5083    2.0761 H   0  0  0  0  0  0  0  0  0  0  0  0
   -1.7645   -1.0685    1.2103 H   0  0  0  0  0  0  0  0  0  0  0  0
   -2.0018   -4.0625   -1.0185 H   0  0  0  0  0  0  0  0  0  0  0  0
   -4.0569   -4.7011   -2.1626 H   0  0  0  0  0  0  0  0  0  0  0  0
   -6.1207   -3.3507   -1.9082 H   0  0  0  0  0  0  0  0  0  0  0  0
   -6.1073   -1.3308   -0.5024 H   0  0  0  0  0  0  0  0  0  0  0  0
   -5.3375    1.3451    2.5420 H   0  0  0  0  0  0  0  0  0  0  0  0
   -6.7012    3.3405    1.9769 H   0  0  0  0  0  0  0  0  0  0  0  0
   -6.9332    4.0541   -0.3876 H   0  0  0  0  0  0  0  0  0  0  0  0
   -5.7935    2.7887   -2.1924 H   0  0  0  0  0  0  0  0  0  0  0  0
   -4.4269    0.8011   -1.6487 H   0  0  0  0  0  0  0  0  0  0  0  0
  1  2  2  0
  2  3  1  0
  3  4  1  0
  4  5  1  0
  5  6  1  0
  6  7  1  0
  7  8  1  0
  8  9  2  0
  8 10  2  0
  8 11  1  0
 11 12  2  0
 12 13  1  0
 13 14  2  0
 14 15  1  0
 15 16  2  0
 16 17  1  0
  7 18  1  0
 18 19  1  0
  2 20  1  0
 20 21  1  0
 21 22  2  0
 22 23  1  0
 23 24  2  0
 24 25  1  0
 25 26  2  0
 26 27  1  0
 27 28  2  0
 27 29  1  0
 29 30  2  0
 30 31  1  0
 31 32  2  0
 32 33  1  0
 33 34  2  0
 19  4  1  0
 26 21  1  0
 34 29  1  0
 16 11  1  0
  3 35  1  0
  3 36  1  0
  5 37  1  0
  5 38  1  0
  6 39  1  0
  6 40  1  0
 12 41  1  0
 13 42  1  0
 14 43  1  0
 15 44  1  0
 18 45  1  0
 18 46  1  0
 19 47  1  0
 19 48  1  0
 20 49  1  0
 22 50  1  0
 23 51  1  0
 24 52  1  0
 25 53  1  0
 30 54  1  0
 31 55  1  0
 32 56  1  0
 33 57  1  0
 34 58  1  0
M  END
$$$$
