
     RDKit          3D

 61 66  0  0  0  0  0  0  0  0999 V2000
   -2.3412    0.8894    1.7597 O   0  0  0  0  0  0  0  0  0  0  0  0
   -2.7154    0.6024    0.6177 C   0  0  0  0  0  0  0  0  0  0  0  0
   -1.7135    0.7057   -0.5164 C   0  0  0  0  0  0  0  0  0  0  0  0
   -0.5188   -0.0428   -0.2089 N   0  0  0  0  0  0  0  0  0  0  0  0
   -0.5147   -1.3879   -0.2099 N   0  0  0  0  0  0  0  0  0  0  0  0
    0.7590   -1.7196   -0.0566 N   0  0  0  0  0  0  0  0  0  0  0  0
    1.4787   -0.5472   -0.0158 C   0  0  0  0  0  0  0  0  0  0  0  0
    2.9283   -0.5116    0.1257 C   0  0  0  0  0  0  0  0  0  0  0  0
    3.6778   -1.6905    0.0767 C   0  0  0  0  0  0  0  0  0  0  0  0
    5.0728   -1.6500    0.2008 C   0  0  0  0  0  0  0  0  0  0  0  0
    5.7650   -0.4432    0.3847 C   0  0  0  0  0  0  0  0  0  0  0  0
    7.1594   -0.4692    0.4910 N   0  0  0  0  0  0  0  0  0  0  0  0
    7.8635    0.6258    1.1876 C   0  0  0  0  0  0  0  0  0  0  0  0
    8.5864    1.5324    0.1834 C   0  0  0  0  0  0  0  0  0  0  0  0
    9.5759    0.8441   -0.5989 O   0  0  0  0  0  0  0  0  0  0  0  0
    9.3191   -0.5618   -0.7312 C   0  0  0  0  0  0  0  0  0  0  0  0
    7.8227   -0.9052   -0.7627 C   0  0  0  0  0  0  0  0  0  0  0  0
    5.0020    0.7300    0.4415 C   0  0  0  0  0  0  0  0  0  0  0  0
    3.6057    0.6990    0.3096 C   0  0  0  0  0  0  0  0  0  0  0  0
    0.6959    0.5383   -0.1539 N   0  0  0  0  0  0  0  0  0  0  0  0
   -4.0560    0.3381    0.2691 N   0  0  0  0  0  0  0  0  0  0  0  0
   -5.1239    0.3832    1.2397 C   0  0  0  0  0  0  0  0  0  0  0  0
   -4.8666   -0.0673    2.5517 C   0  0  0  0  0  0  0  0  0  0  0  0
   -5.8553   -0.0893    3.5392 C   0  0  0  0  0  0  0  0  0  0  0  0
   -7.1370    0.3390    3.2398 C   0  0  0  0  0  0  0  0  0  0  0  0
   -7.4209    0.7938    1.9552 C   0  0  0  0  0  0  0  0  0  0  0  0
   -6.4331    0.8326    0.9413 C   0  0  0  0  0  0  0  0  0  0  0  0
   -6.9102    1.4170   -0.3748 C   0  0  0  0  0  0  0  0  0  0  0  0
   -5.8857    1.6403   -1.4786 C   0  0  0  0  0  0  0  0  0  0  0  0
   -5.2671    0.3276   -1.8576 C   0  0  0  0  0  0  0  0  0  0  0  0
   -5.5676   -0.2929   -3.0766 C   0  0  0  0  0  0  0  0  0  0  0  0
   -5.0139   -1.5336   -3.3906 C   0  0  0  0  0  0  0  0  0  0  0  0
   -4.1617   -2.1654   -2.4899 C   0  0  0  0  0  0  0  0  0  0  0  0
   -3.8555   -1.5527   -1.2751 C   0  0  0  0  0  0  0  0  0  0  0  0
   -4.4004   -0.3003   -0.9567 C   0  0  0  0  0  0  0  0  0  0  0  0
   -1.4406    1.7628   -0.6234 H   0  0  0  0  0  0  0  0  0  0  0  0
   -2.0645    0.3714   -1.4923 H   0  0  0  0  0  0  0  0  0  0  0  0
    3.1902   -2.6536   -0.0626 H   0  0  0  0  0  0  0  0  0  0  0  0
    5.6245   -2.5871    0.1745 H   0  0  0  0  0  0  0  0  0  0  0  0
    8.6085    0.1617    1.8459 H   0  0  0  0  0  0  0  0  0  0  0  0
    7.2060    1.2090    1.8398 H   0  0  0  0  0  0  0  0  0  0  0  0
    7.8730    1.9897   -0.5117 H   0  0  0  0  0  0  0  0  0  0  0  0
    9.0966    2.3453    0.7095 H   0  0  0  0  0  0  0  0  0  0  0  0
    9.8171   -1.0757    0.0982 H   0  0  0  0  0  0  0  0  0  0  0  0
    9.7993   -0.8964   -1.6547 H   0  0  0  0  0  0  0  0  0  0  0  0
    7.3660   -0.3943   -1.6205 H   0  0  0  0  0  0  0  0  0  0  0  0
    7.7076   -1.9863   -0.8948 H   0  0  0  0  0  0  0  0  0  0  0  0
    5.4736    1.7002    0.5570 H   0  0  0  0  0  0  0  0  0  0  0  0
    3.0541    1.6366    0.3491 H   0  0  0  0  0  0  0  0  0  0  0  0
   -3.8878   -0.4522    2.8288 H   0  0  0  0  0  0  0  0  0  0  0  0
   -5.6165   -0.4508    4.5363 H   0  0  0  0  0  0  0  0  0  0  0  0
   -7.9127    0.3239    4.0012 H   0  0  0  0  0  0  0  0  0  0  0  0
   -8.4321    1.1373    1.7407 H   0  0  0  0  0  0  0  0  0  0  0  0
   -7.3696    2.3914   -0.1589 H   0  0  0  0  0  0  0  0  0  0  0  0
   -7.7077    0.7651   -0.7565 H   0  0  0  0  0  0  0  0  0  0  0  0
   -6.3769    2.0952   -2.3474 H   0  0  0  0  0  0  0  0  0  0  0  0
   -5.1085    2.3485   -1.1651 H   0  0  0  0  0  0  0  0  0  0  0  0
   -6.2441    0.1794   -3.7836 H   0  0  0  0  0  0  0  0  0  0  0  0
   -5.2578   -2.0152   -4.3338 H   0  0  0  0  0  0  0  0  0  0  0  0
   -3.7418   -3.1397   -2.7269 H   0  0  0  0  0  0  0  0  0  0  0  0
   -3.2098   -2.0742   -0.5722 H   0  0  0  0  0  0  0  0  0  0  0  0
  1  2  2  0
  2  3  1  0
  3  4  1  0
  4  5  1  0
  5  6  2  0
  6  7  1  0
  7  8  1  0
  8  9  2  0
  9 10  1  0
 10 11  2  0
 11 12  1  0
 12 13  1  0
 13 14  1  0
 14 15  1  0
 15 16  1  0
 16 17  1  0
 11 18  1  0
 18 19  2  0
  7 20  2  0
  2 21  1  0
 21 22  1  0
 22 23  2  0
 23 24  1  0
 24 25  2  0
 25 26  1  0
 26 27  2  0
 27 28  1  0
 28 29  1  0
 29 30  1  0
 30 31  2  0
 31 32  1  0
 32 33  2  0
 33 34  1  0
 34 35  2  0
 20  4  1  0
 35 21  1  0
 19  8  1  0
 27 22  1  0
 35 30  1  0
 17 12  1  0
  3 36  1  0
  3 37  1  0
  9 38  1  0
 10 39  1  0
 13 40  1  0
 13 41  1  0
 14 42  1  0
 14 43  1  0
 16 44  1  0
 16 45  1  0
 17 46  1  0
 17 47  1  0
 18 48  1  0
 19 49  1  0
 23 50  1  0
 24 51  1  0
 25 52  1  0
 26 53  1  0
 28 54  1  0
 28 55  1  0
 29 56  1  0
 29 57  1  0
 31 58  1  0
 32 59  1  0
 33 60  1  0
 34 61  1  0
M  END
$$$$
