
     RDKit          3D

 33 34  0  0  0  0  0  0  0  0999 V2000
   -5.4615    0.7023    1.7079 C   0  0  0  0  0  0  0  0  0  0  0  0
   -4.4910   -0.1701    1.1394 O   0  0  0  0  0  0  0  0  0  0  0  0
   -3.2586    0.3615    0.8796 C   0  0  0  0  0  0  0  0  0  0  0  0
   -2.8147    1.6255    1.2600 C   0  0  0  0  0  0  0  0  0  0  0  0
   -1.5290    2.0521    0.9046 C   0  0  0  0  0  0  0  0  0  0  0  0
   -0.6619    1.2208    0.1722 C   0  0  0  0  0  0  0  0  0  0  0  0
    0.6728    1.7927   -0.1851 C   0  0  0  0  0  0  0  0  0  0  0  0
    1.1172    2.7197    0.4995 O   0  0  0  0  0  0  0  0  0  0  0  0
    1.4219    1.2969   -1.4004 C   0  0  0  0  0  0  0  0  0  0  0  0
    2.5143    0.3662   -1.0085 C   0  0  0  0  0  0  0  0  0  0  0  0
    2.7538   -0.1009    0.2010 N   0  0  0  0  0  0  0  0  0  0  0  0
    3.8128   -0.9810    0.2268 N   0  0  0  0  0  0  0  0  0  0  0  0
    4.3520   -1.1472   -0.9613 C   0  0  0  0  0  0  0  0  0  0  0  0
    5.5007   -2.0382   -1.2553 C   0  0  0  0  0  0  0  0  0  0  0  0
    3.5930   -0.2427   -2.2075 S   0  0  0  0  0  0  0  0  0  0  0  0
   -1.0948   -0.0688   -0.1586 C   0  0  0  0  0  0  0  0  0  0  0  0
   -0.2978   -0.9303   -0.8618 O   0  0  0  0  0  0  0  0  0  0  0  0
    0.1270   -2.0317   -0.0467 C   0  0  0  0  0  0  0  0  0  0  0  0
   -2.3944   -0.4797    0.1720 C   0  0  0  0  0  0  0  0  0  0  0  0
   -5.6010    1.6011    1.0985 H   0  0  0  0  0  0  0  0  0  0  0  0
   -5.1922    0.9573    2.7378 H   0  0  0  0  0  0  0  0  0  0  0  0
   -6.4178    0.1691    1.7342 H   0  0  0  0  0  0  0  0  0  0  0  0
   -3.4341    2.3025    1.8411 H   0  0  0  0  0  0  0  0  0  0  0  0
   -1.2051    3.0486    1.2069 H   0  0  0  0  0  0  0  0  0  0  0  0
    1.8405    2.1807   -1.8990 H   0  0  0  0  0  0  0  0  0  0  0  0
    0.7417    0.8425   -2.1258 H   0  0  0  0  0  0  0  0  0  0  0  0
    5.1722   -2.9104   -1.8296 H   0  0  0  0  0  0  0  0  0  0  0  0
    5.9451   -2.3993   -0.3222 H   0  0  0  0  0  0  0  0  0  0  0  0
    6.2784   -1.5150   -1.8205 H   0  0  0  0  0  0  0  0  0  0  0  0
   -0.7072   -2.7048    0.1797 H   0  0  0  0  0  0  0  0  0  0  0  0
    0.6018   -1.6859    0.8789 H   0  0  0  0  0  0  0  0  0  0  0  0
    0.8610   -2.5999   -0.6255 H   0  0  0  0  0  0  0  0  0  0  0  0
   -2.7453   -1.4632   -0.1321 H   0  0  0  0  0  0  0  0  0  0  0  0
  1  2  1  0
  2  3  1  0
  3  4  2  0
  4  5  1  0
  5  6  2  0
  6  7  1  0
  7  8  2  0
  7  9  1  0
  9 10  1  0
 10 11  2  0
 11 12  1  0
 12 13  2  0
 13 14  1  0
 13 15  1  0
  6 16  1  0
 16 17  1  0
 17 18  1  0
 16 19  2  0
 19  3  1  0
 15 10  1  0
  1 20  1  0
  1 21  1  0
  1 22  1  0
  4 23  1  0
  5 24  1  0
  9 25  1  0
  9 26  1  0
 14 27  1  0
 14 28  1  0
 14 29  1  0
 18 30  1  0
 18 31  1  0
 18 32  1  0
 19 33  1  0
M  END
$$$$
