
     RDKit          3D

 72 76  0  0  0  0  0  0  0  0999 V2000
    9.8174   -0.6061   -1.5890 C   0  0  0  0  0  0  0  0  0  0  0  0
    9.0454   -1.4070   -0.7021 O   0  0  0  0  0  0  0  0  0  0  0  0
    7.6889   -1.2349   -0.7350 C   0  0  0  0  0  0  0  0  0  0  0  0
    6.9926   -0.3456   -1.5563 C   0  0  0  0  0  0  0  0  0  0  0  0
    5.5956   -0.2757   -1.4907 C   0  0  0  0  0  0  0  0  0  0  0  0
    4.8860   -1.0857   -0.5960 C   0  0  0  0  0  0  0  0  0  0  0  0
    3.4292   -0.9986   -0.5213 C   0  0  0  0  0  0  0  0  0  0  0  0
    2.7019   -1.3878   -1.5729 N   0  0  0  0  0  0  0  0  0  0  0  0
    1.0988   -1.2533   -1.2066 S   0  0  0  0  0  0  0  0  0  0  0  0
    1.3078   -0.5679    0.3441 C   0  0  0  0  0  0  0  0  0  0  0  0
    0.1862   -0.2304    1.2051 C   0  0  0  0  0  0  0  0  0  0  0  0
    0.2277   -0.5080    2.4062 O   0  0  0  0  0  0  0  0  0  0  0  0
   -0.9721    0.3505    0.6404 N   0  0  0  0  0  0  0  0  0  0  0  0
   -0.9314    1.2661   -0.4697 C   0  0  0  0  0  0  0  0  0  0  0  0
    0.1802    2.1062   -0.6640 C   0  0  0  0  0  0  0  0  0  0  0  0
    0.2326    2.9951   -1.7414 C   0  0  0  0  0  0  0  0  0  0  0  0
   -0.8321    3.0600   -2.6269 C   0  0  0  0  0  0  0  0  0  0  0  0
   -0.7836    3.9104   -3.6598 F   0  0  0  0  0  0  0  0  0  0  0  0
   -1.9512    2.2610   -2.4470 C   0  0  0  0  0  0  0  0  0  0  0  0
   -2.0034    1.3701   -1.3696 C   0  0  0  0  0  0  0  0  0  0  0  0
   -2.2334    0.2396    1.4342 C   0  0  0  0  0  0  0  0  0  0  0  0
   -3.2281   -0.8072    0.8541 C   0  0  0  0  0  0  0  0  0  0  0  0
   -4.3964   -0.9094    1.2249 O   0  0  0  0  0  0  0  0  0  0  0  0
   -2.6838   -1.6919   -0.0624 N   0  0  0  0  0  0  0  0  0  0  0  0
   -3.4280   -2.8233   -0.5710 C   0  0  0  0  0  0  0  0  0  0  0  0
   -2.8015   -3.4201   -1.8292 C   0  0  0  0  0  0  0  0  0  0  0  0
   -3.2275   -4.8883   -1.8412 C   0  0  0  0  0  0  0  0  0  0  0  0
   -3.8734   -5.1617   -0.4850 C   0  0  0  0  0  0  0  0  0  0  0  0
   -3.4495   -3.9999    0.3993 C   0  0  0  0  0  0  0  0  0  0  0  0
   -2.8092    1.6028    1.8259 C   0  0  0  0  0  0  0  0  0  0  0  0
   -4.0045    2.1170    1.3040 C   0  0  0  0  0  0  0  0  0  0  0  0
   -4.4671    3.3881    1.6713 C   0  0  0  0  0  0  0  0  0  0  0  0
   -3.7406    4.1709    2.5662 C   0  0  0  0  0  0  0  0  0  0  0  0
   -4.0753    5.4240    2.9985 O   0  0  0  0  0  0  0  0  0  0  0  0
   -5.3132    5.9522    2.5379 C   0  0  0  0  0  0  0  0  0  0  0  0
   -2.5511    3.6694    3.0940 C   0  0  0  0  0  0  0  0  0  0  0  0
   -2.0893    2.4016    2.7314 C   0  0  0  0  0  0  0  0  0  0  0  0
    2.6625   -0.5320    0.6147 C   0  0  0  0  0  0  0  0  0  0  0  0
    3.1825   -0.0911    1.7906 N   0  0  0  0  0  0  0  0  0  0  0  0
    5.5844   -1.9781    0.2242 C   0  0  0  0  0  0  0  0  0  0  0  0
    6.9778   -2.0494    0.1518 C   0  0  0  0  0  0  0  0  0  0  0  0
   10.8690   -0.8802   -1.4558 H   0  0  0  0  0  0  0  0  0  0  0  0
    9.7168    0.4576   -1.3446 H   0  0  0  0  0  0  0  0  0  0  0  0
    9.5539   -0.8011   -2.6343 H   0  0  0  0  0  0  0  0  0  0  0  0
    7.5031    0.3030   -2.2615 H   0  0  0  0  0  0  0  0  0  0  0  0
    5.0624    0.4158   -2.1410 H   0  0  0  0  0  0  0  0  0  0  0  0
    1.0127    2.1181    0.0363 H   0  0  0  0  0  0  0  0  0  0  0  0
    1.0925    3.6412   -1.8851 H   0  0  0  0  0  0  0  0  0  0  0  0
   -2.7783    2.3304   -3.1478 H   0  0  0  0  0  0  0  0  0  0  0  0
   -2.8924    0.7566   -1.2789 H   0  0  0  0  0  0  0  0  0  0  0  0
   -1.9898   -0.2324    2.3969 H   0  0  0  0  0  0  0  0  0  0  0  0
   -1.6817   -1.6716   -0.1986 H   0  0  0  0  0  0  0  0  0  0  0  0
   -4.4562   -2.5035   -0.7828 H   0  0  0  0  0  0  0  0  0  0  0  0
   -1.7068   -3.3603   -1.7960 H   0  0  0  0  0  0  0  0  0  0  0  0
   -3.1231   -2.8915   -2.7330 H   0  0  0  0  0  0  0  0  0  0  0  0
   -2.3557   -5.5330   -1.9962 H   0  0  0  0  0  0  0  0  0  0  0  0
   -3.9325   -5.0935   -2.6535 H   0  0  0  0  0  0  0  0  0  0  0  0
   -4.9649   -5.1696   -0.5908 H   0  0  0  0  0  0  0  0  0  0  0  0
   -3.5715   -6.1283   -0.0704 H   0  0  0  0  0  0  0  0  0  0  0  0
   -4.1390   -3.8430    1.2337 H   0  0  0  0  0  0  0  0  0  0  0  0
   -2.4529   -4.1837    0.8189 H   0  0  0  0  0  0  0  0  0  0  0  0
   -4.6045    1.5405    0.6034 H   0  0  0  0  0  0  0  0  0  0  0  0
   -5.3989    3.7329    1.2359 H   0  0  0  0  0  0  0  0  0  0  0  0
   -5.3157    6.0640    1.4492 H   0  0  0  0  0  0  0  0  0  0  0  0
   -6.1525    5.3363    2.8755 H   0  0  0  0  0  0  0  0  0  0  0  0
   -5.4337    6.9485    2.9735 H   0  0  0  0  0  0  0  0  0  0  0  0
   -1.9781    4.2714    3.7950 H   0  0  0  0  0  0  0  0  0  0  0  0
   -1.1561    2.0409    3.1614 H   0  0  0  0  0  0  0  0  0  0  0  0
    2.5935   -0.0618    2.6255 H   0  0  0  0  0  0  0  0  0  0  0  0
    4.1622   -0.2526    2.0172 H   0  0  0  0  0  0  0  0  0  0  0  0
    5.0513   -2.6314    0.9109 H   0  0  0  0  0  0  0  0  0  0  0  0
    7.5152   -2.7513    0.7861 H   0  0  0  0  0  0  0  0  0  0  0  0
  1  2  1  0
  2  3  1  0
  3  4  2  0
  4  5  1  0
  5  6  2  0
  6  7  1  0
  7  8  2  0
  8  9  1  0
  9 10  1  0
 10 11  1  0
 11 12  2  0
 11 13  1  0
 13 14  1  0
 14 15  2  0
 15 16  1  0
 16 17  2  0
 17 18  1  0
 17 19  1  0
 19 20  2  0
 13 21  1  0
 21 22  1  0
 22 23  2  0
 22 24  1  0
 24 25  1  0
 25 26  1  0
 26 27  1  0
 27 28  1  0
 28 29  1  0
 21 30  1  0
 30 31  2  0
 31 32  1  0
 32 33  2  0
 33 34  1  0
 34 35  1  0
 33 36  1  0
 36 37  2  0
 10 38  2  0
 38 39  1  0
  6 40  1  0
 40 41  2  0
 41  3  1  0
 38  7  1  0
 20 14  1  0
 29 25  1  0
 37 30  1  0
  1 42  1  0
  1 43  1  0
  1 44  1  0
  4 45  1  0
  5 46  1  0
 15 47  1  0
 16 48  1  0
 19 49  1  0
 20 50  1  0
 21 51  1  0
 24 52  1  0
 25 53  1  0
 26 54  1  0
 26 55  1  0
 27 56  1  0
 27 57  1  0
 28 58  1  0
 28 59  1  0
 29 60  1  0
 29 61  1  0
 31 62  1  0
 32 63  1  0
 35 64  1  0
 35 65  1  0
 35 66  1  0
 36 67  1  0
 37 68  1  0
 39 69  1  0
 39 70  1  0
 40 71  1  0
 41 72  1  0
M  END
$$$$
