
     RDKit          3D

 42 45  0  0  0  0  0  0  0  0999 V2000
    6.4798    1.5503    1.0322 O   0  0  0  0  0  0  0  0  0  0  0  0
    6.2451    0.4460    1.4969 C   0  0  0  0  0  0  0  0  0  0  0  0
    7.0603   -0.5875    1.2279 O   0  0  0  0  0  0  0  0  0  0  0  0
    5.1203    0.1292    2.4477 C   0  0  0  0  0  0  0  0  0  0  0  0
    4.8263   -1.3565    2.6666 C   0  0  0  0  0  0  0  0  0  0  0  0
    4.3091   -2.1098    1.4329 C   0  0  0  0  0  0  0  0  0  0  0  0
    3.0147   -1.6219    0.9510 N   0  0  0  0  0  0  0  0  0  0  0  0
    2.9900   -0.7258   -0.1035 C   0  0  0  0  0  0  0  0  0  0  0  0
    3.9705   -0.2843   -0.6884 O   0  0  0  0  0  0  0  0  0  0  0  0
    1.5916   -0.3485   -0.4423 C   0  0  0  0  0  0  0  0  0  0  0  0
    1.3555    0.5258   -1.4296 C   0  0  0  0  0  0  0  0  0  0  0  0
    0.0739    0.9759   -1.8557 C   0  0  0  0  0  0  0  0  0  0  0  0
   -0.2134    1.8970   -2.8538 C   0  0  0  0  0  0  0  0  0  0  0  0
   -1.6204    2.0337   -2.9291 C   0  0  0  0  0  0  0  0  0  0  0  0
   -2.1633    1.1916   -1.9749 C   0  0  0  0  0  0  0  0  0  0  0  0
   -3.5402    0.9436   -1.6291 C   0  0  0  0  0  0  0  0  0  0  0  0
   -3.8778    0.0948   -0.6821 N   0  0  0  0  0  0  0  0  0  0  0  0
   -5.2540    0.0450   -0.5528 C   0  0  0  0  0  0  0  0  0  0  0  0
   -5.9700   -0.7544    0.3610 C   0  0  0  0  0  0  0  0  0  0  0  0
   -7.3676   -0.7049    0.3828 C   0  0  0  0  0  0  0  0  0  0  0  0
   -8.0565    0.1289   -0.4924 C   0  0  0  0  0  0  0  0  0  0  0  0
   -7.3696    0.9318   -1.4086 C   0  0  0  0  0  0  0  0  0  0  0  0
   -5.9659    0.8737   -1.4212 C   0  0  0  0  0  0  0  0  0  0  0  0
   -4.8508    1.7270   -2.4157 S   0  0  0  0  0  0  0  0  0  0  0  0
   -1.1264    0.5608   -1.3370 O   0  0  0  0  0  0  0  0  0  0  0  0
    0.5041   -1.1764    0.5933 S   0  0  0  0  0  0  0  0  0  0  0  0
    1.7895   -2.0023    1.4601 C   0  0  0  0  0  0  0  0  0  0  0  0
    1.4759   -3.0735    2.7006 S   0  0  0  0  0  0  0  0  0  0  0  0
    7.7159   -0.2031    0.6071 H   0  0  0  0  0  0  0  0  0  0  0  0
    4.2204    0.6415    2.0925 H   0  0  0  0  0  0  0  0  0  0  0  0
    5.3952    0.5712    3.4126 H   0  0  0  0  0  0  0  0  0  0  0  0
    5.7338   -1.8595    3.0231 H   0  0  0  0  0  0  0  0  0  0  0  0
    4.0936   -1.4375    3.4778 H   0  0  0  0  0  0  0  0  0  0  0  0
    5.0397   -2.0589    0.6190 H   0  0  0  0  0  0  0  0  0  0  0  0
    4.2096   -3.1714    1.6853 H   0  0  0  0  0  0  0  0  0  0  0  0
    2.2072    0.9426   -1.9648 H   0  0  0  0  0  0  0  0  0  0  0  0
    0.5181    2.4142   -3.4605 H   0  0  0  0  0  0  0  0  0  0  0  0
   -2.1694    2.6751   -3.6045 H   0  0  0  0  0  0  0  0  0  0  0  0
   -5.4268   -1.4030    1.0415 H   0  0  0  0  0  0  0  0  0  0  0  0
   -7.9154   -1.3236    1.0898 H   0  0  0  0  0  0  0  0  0  0  0  0
   -9.1440    0.1577   -0.4648 H   0  0  0  0  0  0  0  0  0  0  0  0
   -7.9088    1.5819   -2.0907 H   0  0  0  0  0  0  0  0  0  0  0  0
  1  2  2  0
  2  3  1  0
  2  4  1  0
  4  5  1  0
  5  6  1  0
  6  7  1  0
  7  8  1  0
  8  9  2  0
  8 10  1  0
 10 11  2  3
 11 12  1  0
 12 13  2  0
 13 14  1  0
 14 15  2  0
 15 16  1  0
 16 17  2  0
 17 18  1  0
 18 19  2  0
 19 20  1  0
 20 21  2  0
 21 22  1  0
 22 23  2  0
 23 24  1  0
 15 25  1  0
 10 26  1  0
 26 27  1  0
 27 28  2  0
 27  7  1  0
 25 12  1  0
 24 16  1  0
 23 18  1  0
  3 29  1  0
  4 30  1  0
  4 31  1  0
  5 32  1  0
  5 33  1  0
  6 34  1  0
  6 35  1  0
 11 36  1  0
 13 37  1  0
 14 38  1  0
 19 39  1  0
 20 40  1  0
 21 41  1  0
 22 42  1  0
M  END
$$$$
