
     RDKit          3D

 44 46  0  0  0  0  0  0  0  0999 V2000
    4.4732    2.0141   -1.3614 C   0  0  0  0  0  0  0  0  0  0  0  0
    3.8985    0.9090   -0.6698 O   0  0  0  0  0  0  0  0  0  0  0  0
    4.7483   -0.0362   -0.1477 C   0  0  0  0  0  0  0  0  0  0  0  0
    6.1465    0.0554   -0.2453 C   0  0  0  0  0  0  0  0  0  0  0  0
    6.9722   -0.9299    0.3014 C   0  0  0  0  0  0  0  0  0  0  0  0
    6.4153   -2.0212    0.9540 C   0  0  0  0  0  0  0  0  0  0  0  0
    5.0295   -2.1268    1.0604 C   0  0  0  0  0  0  0  0  0  0  0  0
    4.1768   -1.1448    0.5168 C   0  0  0  0  0  0  0  0  0  0  0  0
    2.6971   -1.3805    0.7018 C   0  0  0  0  0  0  0  0  0  0  0  0
    2.3376   -2.3943    1.2942 O   0  0  0  0  0  0  0  0  0  0  0  0
    1.8472   -0.4227    0.1851 N   0  0  0  0  0  0  0  0  0  0  0  0
    0.4398   -0.3955    0.2153 C   0  0  0  0  0  0  0  0  0  0  0  0
   -0.3522   -1.3849    0.7941 C   0  0  0  0  0  0  0  0  0  0  0  0
   -1.7493   -1.2774    0.7785 C   0  0  0  0  0  0  0  0  0  0  0  0
   -2.3806   -0.1761    0.1865 C   0  0  0  0  0  0  0  0  0  0  0  0
   -3.8812   -0.1078    0.2020 C   0  0  0  0  0  0  0  0  0  0  0  0
   -4.5549   -1.1765    0.5182 N   0  0  0  0  0  0  0  0  0  0  0  0
   -5.9127   -1.1001    0.5665 N   0  0  0  0  0  0  0  0  0  0  0  0
   -6.6524    0.0528    0.6248 C   0  0  0  0  0  0  0  0  0  0  0  0
   -7.8768    0.0402    0.7184 O   0  0  0  0  0  0  0  0  0  0  0  0
   -5.8536    1.3256    0.6421 C   0  0  0  0  0  0  0  0  0  0  0  0
   -4.5817    1.1897   -0.1833 C   0  0  0  0  0  0  0  0  0  0  0  0
   -4.8786    1.1985   -1.6842 C   0  0  0  0  0  0  0  0  0  0  0  0
   -1.5865    0.8146   -0.3979 C   0  0  0  0  0  0  0  0  0  0  0  0
   -0.1895    0.7030   -0.3818 C   0  0  0  0  0  0  0  0  0  0  0  0
    3.6529    2.6469   -1.7136 H   0  0  0  0  0  0  0  0  0  0  0  0
    5.0942    2.6180   -0.6919 H   0  0  0  0  0  0  0  0  0  0  0  0
    5.0360    1.6811   -2.2394 H   0  0  0  0  0  0  0  0  0  0  0  0
    6.6351    0.8869   -0.7435 H   0  0  0  0  0  0  0  0  0  0  0  0
    8.0530   -0.8427    0.2162 H   0  0  0  0  0  0  0  0  0  0  0  0
    7.0534   -2.7909    1.3812 H   0  0  0  0  0  0  0  0  0  0  0  0
    4.6114   -2.9906    1.5764 H   0  0  0  0  0  0  0  0  0  0  0  0
    2.3020    0.3596   -0.2743 H   0  0  0  0  0  0  0  0  0  0  0  0
    0.0821   -2.2598    1.2680 H   0  0  0  0  0  0  0  0  0  0  0  0
   -2.3349   -2.0700    1.2410 H   0  0  0  0  0  0  0  0  0  0  0  0
   -6.4132   -1.9778    0.6655 H   0  0  0  0  0  0  0  0  0  0  0  0
   -5.6072    1.5393    1.6893 H   0  0  0  0  0  0  0  0  0  0  0  0
   -6.4750    2.1452    0.2653 H   0  0  0  0  0  0  0  0  0  0  0  0
   -3.9470    2.0487    0.0575 H   0  0  0  0  0  0  0  0  0  0  0  0
   -3.9572    1.1213   -2.2704 H   0  0  0  0  0  0  0  0  0  0  0  0
   -5.3828    2.1263   -1.9738 H   0  0  0  0  0  0  0  0  0  0  0  0
   -5.5170    0.3589   -1.9797 H   0  0  0  0  0  0  0  0  0  0  0  0
   -2.0178    1.6819   -0.8864 H   0  0  0  0  0  0  0  0  0  0  0  0
    0.4002    1.4894   -0.8470 H   0  0  0  0  0  0  0  0  0  0  0  0
  1  2  1  0
  2  3  1  0
  3  4  2  0
  4  5  1  0
  5  6  2  0
  6  7  1  0
  7  8  2  0
  8  9  1  0
  9 10  2  0
  9 11  1  0
 11 12  1  0
 12 13  2  0
 13 14  1  0
 14 15  2  0
 15 16  1  0
 16 17  2  0
 17 18  1  0
 18 19  1  0
 19 20  2  0
 19 21  1  0
 21 22  1  0
 22 23  1  0
 15 24  1  0
 24 25  2  0
  8  3  1  0
 25 12  1  0
 22 16  1  0
  1 26  1  0
  1 27  1  0
  1 28  1  0
  4 29  1  0
  5 30  1  0
  6 31  1  0
  7 32  1  0
 11 33  1  0
 13 34  1  0
 14 35  1  0
 18 36  1  0
 21 37  1  0
 21 38  1  0
 22 39  1  0
 23 40  1  0
 23 41  1  0
 23 42  1  0
 24 43  1  0
 25 44  1  0
M  END
$$$$
