
     RDKit          3D

 58 62  0  0  0  0  0  0  0  0999 V2000
   -7.2730    0.7618   -3.0330 C   0  0  0  0  0  0  0  0  0  0  0  0
   -6.5526    1.0438   -1.8396 O   0  0  0  0  0  0  0  0  0  0  0  0
   -5.1936    0.8979   -1.8893 C   0  0  0  0  0  0  0  0  0  0  0  0
   -4.4583    0.4215   -2.9751 C   0  0  0  0  0  0  0  0  0  0  0  0
   -3.0648    0.3188   -2.8892 C   0  0  0  0  0  0  0  0  0  0  0  0
   -2.3986    0.6805   -1.7122 C   0  0  0  0  0  0  0  0  0  0  0  0
   -0.9118    0.5739   -1.6584 C   0  0  0  0  0  0  0  0  0  0  0  0
   -0.2392    0.8232   -2.7286 N   0  0  0  0  0  0  0  0  0  0  0  0
    1.2169    0.7549   -2.6737 C   0  0  0  0  0  0  0  0  0  0  0  0
    1.7824    1.9193   -1.8623 C   0  0  0  0  0  0  0  0  0  0  0  0
    2.4198    2.8125   -2.4277 O   0  0  0  0  0  0  0  0  0  0  0  0
    1.6475    1.8692   -0.4680 N   0  0  0  0  0  0  0  0  0  0  0  0
    2.4277    2.8560    0.2972 C   0  0  0  0  0  0  0  0  0  0  0  0
    3.8353    2.4065    0.7103 C   0  0  0  0  0  0  0  0  0  0  0  0
    4.5332    3.0959    1.4530 O   0  0  0  0  0  0  0  0  0  0  0  0
    4.2725    1.2165    0.1745 N   0  0  0  0  0  0  0  0  0  0  0  0
    5.4974    0.5930    0.6154 C   0  0  0  0  0  0  0  0  0  0  0  0
    5.1673   -0.3389    1.7205 C   0  0  0  0  0  0  0  0  0  0  0  0
    5.2187   -0.2321    3.0949 C   0  0  0  0  0  0  0  0  0  0  0  0
    4.7432   -1.4624    3.6081 C   0  0  0  0  0  0  0  0  0  0  0  0
    4.4316   -2.2381    2.5180 C   0  0  0  0  0  0  0  0  0  0  0  0
    4.6814   -1.5647    1.3657 O   0  0  0  0  0  0  0  0  0  0  0  0
    0.8312    0.8911    0.1165 C   0  0  0  0  0  0  0  0  0  0  0  0
    1.1846    0.4169    1.7195 S   0  0  0  0  0  0  0  0  0  0  0  0
    0.0535   -0.8399    1.6714 C   0  0  0  0  0  0  0  0  0  0  0  0
   -0.6729   -0.8542    0.4969 C   0  0  0  0  0  0  0  0  0  0  0  0
   -0.2707    0.2159   -0.3920 C   0  0  0  0  0  0  0  0  0  0  0  0
   -1.7367   -1.8926    0.2558 C   0  0  0  0  0  0  0  0  0  0  0  0
   -1.5736   -3.1020    1.1891 C   0  0  0  0  0  0  0  0  0  0  0  0
   -1.3573   -2.6568    2.6417 C   0  0  0  0  0  0  0  0  0  0  0  0
   -0.0753   -1.8255    2.7931 C   0  0  0  0  0  0  0  0  0  0  0  0
   -3.1327    1.1770   -0.6304 C   0  0  0  0  0  0  0  0  0  0  0  0
   -4.5238    1.2756   -0.7219 C   0  0  0  0  0  0  0  0  0  0  0  0
   -6.9541    1.4158   -3.8520 H   0  0  0  0  0  0  0  0  0  0  0  0
   -7.1799   -0.2938   -3.3100 H   0  0  0  0  0  0  0  0  0  0  0  0
   -8.3312    0.9623   -2.8392 H   0  0  0  0  0  0  0  0  0  0  0  0
   -4.9339    0.1254   -3.9046 H   0  0  0  0  0  0  0  0  0  0  0  0
   -2.5013   -0.0433   -3.7467 H   0  0  0  0  0  0  0  0  0  0  0  0
    1.6024    0.8439   -3.6959 H   0  0  0  0  0  0  0  0  0  0  0  0
    1.5887   -0.2053   -2.2971 H   0  0  0  0  0  0  0  0  0  0  0  0
    2.5466    3.7713   -0.2930 H   0  0  0  0  0  0  0  0  0  0  0  0
    1.8690    3.1340    1.1971 H   0  0  0  0  0  0  0  0  0  0  0  0
    3.5749    0.6031   -0.2204 H   0  0  0  0  0  0  0  0  0  0  0  0
    5.9156    0.0468   -0.2356 H   0  0  0  0  0  0  0  0  0  0  0  0
    6.2230    1.3467    0.9356 H   0  0  0  0  0  0  0  0  0  0  0  0
    5.5477    0.6360    3.6505 H   0  0  0  0  0  0  0  0  0  0  0  0
    4.6382   -1.7469    4.6454 H   0  0  0  0  0  0  0  0  0  0  0  0
    4.0399   -3.2384    2.3991 H   0  0  0  0  0  0  0  0  0  0  0  0
   -2.7200   -1.4445    0.4351 H   0  0  0  0  0  0  0  0  0  0  0  0
   -1.7085   -2.2334   -0.7854 H   0  0  0  0  0  0  0  0  0  0  0  0
   -2.4624   -3.7401    1.1199 H   0  0  0  0  0  0  0  0  0  0  0  0
   -0.7165   -3.7064    0.8650 H   0  0  0  0  0  0  0  0  0  0  0  0
   -1.3051   -3.5306    3.3001 H   0  0  0  0  0  0  0  0  0  0  0  0
   -2.2205   -2.0623    2.9665 H   0  0  0  0  0  0  0  0  0  0  0  0
   -0.0795   -1.3201    3.7647 H   0  0  0  0  0  0  0  0  0  0  0  0
    0.7919   -2.4962    2.7726 H   0  0  0  0  0  0  0  0  0  0  0  0
   -2.6415    1.5007    0.2835 H   0  0  0  0  0  0  0  0  0  0  0  0
   -5.0930    1.6609    0.1210 H   0  0  0  0  0  0  0  0  0  0  0  0
  1  2  1  0
  2  3  1  0
  3  4  2  0
  4  5  1  0
  5  6  2  0
  6  7  1  0
  7  8  2  0
  8  9  1  0
  9 10  1  0
 10 11  2  0
 10 12  1  0
 12 13  1  0
 13 14  1  0
 14 15  2  0
 14 16  1  0
 16 17  1  0
 17 18  1  0
 18 19  2  0
 19 20  1  0
 20 21  2  0
 21 22  1  0
 12 23  1  0
 23 24  1  0
 24 25  1  0
 25 26  2  0
 26 27  1  0
 26 28  1  0
 28 29  1  0
 29 30  1  0
 30 31  1  0
  6 32  1  0
 32 33  2  0
 33  3  1  0
 27  7  1  0
 22 18  1  0
 27 23  2  0
 31 25  1  0
  1 34  1  0
  1 35  1  0
  1 36  1  0
  4 37  1  0
  5 38  1  0
  9 39  1  0
  9 40  1  0
 13 41  1  0
 13 42  1  0
 16 43  1  0
 17 44  1  0
 17 45  1  0
 19 46  1  0
 20 47  1  0
 21 48  1  0
 28 49  1  0
 28 50  1  0
 29 51  1  0
 29 52  1  0
 30 53  1  0
 30 54  1  0
 31 55  1  0
 31 56  1  0
 32 57  1  0
 33 58  1  0
M  END
$$$$
