
     RDKit          3D

 30 31  0  0  0  0  0  0  0  0999 V2000
    3.2275    1.1083    3.6007 N   0  0  0  0  0  0  0  0  0  0  0  0
    3.1475    0.0952    3.0414 C   0  0  0  0  0  0  0  0  0  0  0  0
    3.0809   -1.1823    2.3230 C   0  0  0  0  0  0  0  0  0  0  0  0
    3.1713   -0.9711    0.8180 C   0  0  0  0  0  0  0  0  0  0  0  0
    1.9781   -0.3555    0.2683 N   0  0  0  0  0  0  0  0  0  0  0  0
    1.8764    0.8753   -0.2951 C   0  0  0  0  0  0  0  0  0  0  0  0
    0.5552    1.0209   -0.6722 C   0  0  0  0  0  0  0  0  0  0  0  0
   -0.0239    2.1589   -1.3456 C   0  0  0  0  0  0  0  0  0  0  0  0
    0.7093    3.1987   -1.5850 N   0  0  0  0  0  0  0  0  0  0  0  0
   -0.0664    4.1633   -2.2416 O   0  0  0  0  0  0  0  0  0  0  0  0
   -0.0706   -0.1965   -0.2648 C   0  0  0  0  0  0  0  0  0  0  0  0
   -1.4732   -0.5868   -0.3820 C   0  0  0  0  0  0  0  0  0  0  0  0
   -1.8097   -1.8329   -0.9302 C   0  0  0  0  0  0  0  0  0  0  0  0
   -3.1482   -2.2170   -1.0481 C   0  0  0  0  0  0  0  0  0  0  0  0
   -4.1544   -1.3586   -0.6100 C   0  0  0  0  0  0  0  0  0  0  0  0
   -5.8026   -1.8298   -0.7535 Cl  0  0  0  0  0  0  0  0  0  0  0  0
   -3.8340   -0.1227   -0.0506 C   0  0  0  0  0  0  0  0  0  0  0  0
   -2.4947    0.2618    0.0669 C   0  0  0  0  0  0  0  0  0  0  0  0
    0.8244   -1.0396    0.2782 N   0  0  0  0  0  0  0  0  0  0  0  0
    2.1630   -1.7160    2.5942 H   0  0  0  0  0  0  0  0  0  0  0  0
    3.9203   -1.8112    2.6421 H   0  0  0  0  0  0  0  0  0  0  0  0
    3.2870   -1.9338    0.3060 H   0  0  0  0  0  0  0  0  0  0  0  0
    4.0306   -0.3454    0.5492 H   0  0  0  0  0  0  0  0  0  0  0  0
    2.7219    1.5438   -0.3918 H   0  0  0  0  0  0  0  0  0  0  0  0
   -1.0839    2.1137   -1.6477 H   0  0  0  0  0  0  0  0  0  0  0  0
    0.5682    4.8952   -2.3610 H   0  0  0  0  0  0  0  0  0  0  0  0
   -1.0262   -2.5102   -1.2653 H   0  0  0  0  0  0  0  0  0  0  0  0
   -3.3952   -3.1846   -1.4764 H   0  0  0  0  0  0  0  0  0  0  0  0
   -4.6187    0.5411    0.3031 H   0  0  0  0  0  0  0  0  0  0  0  0
   -2.2599    1.2179    0.5299 H   0  0  0  0  0  0  0  0  0  0  0  0
  1  2  3  0
  2  3  1  0
  3  4  1  0
  4  5  1  0
  5  6  1  0
  6  7  2  0
  7  8  1  0
  8  9  2  3
  9 10  1  0
  7 11  1  0
 11 12  1  0
 12 13  2  0
 13 14  1  0
 14 15  2  0
 15 16  1  0
 15 17  1  0
 17 18  2  0
 11 19  2  0
 19  5  1  0
 18 12  1  0
  3 20  1  0
  3 21  1  0
  4 22  1  0
  4 23  1  0
  6 24  1  0
  8 25  1  0
 10 26  1  0
 13 27  1  0
 14 28  1  0
 17 29  1  0
 18 30  1  0
M  END
$$$$
