
     RDKit          3D

 36 37  0  0  0  0  0  0  0  0999 V2000
    5.7389   -1.3458   -1.1485 C   0  0  0  0  0  0  0  0  0  0  0  0
    4.4592   -0.7646   -0.8354 N   0  0  0  0  0  0  0  0  0  0  0  0
    4.3471    0.2921    0.0444 C   0  0  0  0  0  0  0  0  0  0  0  0
    5.3127    0.8792    0.5239 O   0  0  0  0  0  0  0  0  0  0  0  0
    2.9095    0.7141    0.3366 C   0  0  0  0  0  0  0  0  0  0  0  0
    2.0044   -0.3805    0.1488 O   0  0  0  0  0  0  0  0  0  0  0  0
    0.7011   -0.0459    0.3154 C   0  0  0  0  0  0  0  0  0  0  0  0
    0.2886    1.0776    0.5681 O   0  0  0  0  0  0  0  0  0  0  0  0
   -0.1951   -1.2264    0.1202 C   0  0  0  0  0  0  0  0  0  0  0  0
    0.3608   -2.5168    0.0249 C   0  0  0  0  0  0  0  0  0  0  0  0
   -0.4568   -3.6281   -0.1687 C   0  0  0  0  0  0  0  0  0  0  0  0
   -1.8325   -3.4611   -0.2660 C   0  0  0  0  0  0  0  0  0  0  0  0
   -2.3986   -2.1864   -0.1645 C   0  0  0  0  0  0  0  0  0  0  0  0
   -1.5997   -1.0528    0.0329 C   0  0  0  0  0  0  0  0  0  0  0  0
   -2.1510    0.2498    0.1544 N   0  0  0  0  0  0  0  0  0  0  0  0
   -3.4754    0.6527    0.0669 C   0  0  0  0  0  0  0  0  0  0  0  0
   -4.4098   -0.1074   -0.1704 O   0  0  0  0  0  0  0  0  0  0  0  0
   -3.6738    2.0831    0.2757 C   0  0  0  0  0  0  0  0  0  0  0  0
   -2.8238    3.1369    0.5771 C   0  0  0  0  0  0  0  0  0  0  0  0
   -3.6217    4.3060    0.6547 C   0  0  0  0  0  0  0  0  0  0  0  0
   -4.9092    3.9055    0.3985 C   0  0  0  0  0  0  0  0  0  0  0  0
   -4.9532    2.5704    0.1695 O   0  0  0  0  0  0  0  0  0  0  0  0
    6.0423   -1.9903   -0.3193 H   0  0  0  0  0  0  0  0  0  0  0  0
    6.4872   -0.5619   -1.2926 H   0  0  0  0  0  0  0  0  0  0  0  0
    5.6378   -1.9384   -2.0604 H   0  0  0  0  0  0  0  0  0  0  0  0
    3.6175   -1.2983   -1.0185 H   0  0  0  0  0  0  0  0  0  0  0  0
    2.8607    1.0450    1.3799 H   0  0  0  0  0  0  0  0  0  0  0  0
    2.6607    1.5366   -0.3434 H   0  0  0  0  0  0  0  0  0  0  0  0
    1.4326   -2.6771    0.1077 H   0  0  0  0  0  0  0  0  0  0  0  0
   -0.0233   -4.6228   -0.2408 H   0  0  0  0  0  0  0  0  0  0  0  0
   -2.4781   -4.3241   -0.4163 H   0  0  0  0  0  0  0  0  0  0  0  0
   -3.4801   -2.1210   -0.2389 H   0  0  0  0  0  0  0  0  0  0  0  0
   -1.4680    0.9828    0.3369 H   0  0  0  0  0  0  0  0  0  0  0  0
   -1.7543    3.0847    0.7285 H   0  0  0  0  0  0  0  0  0  0  0  0
   -3.2977    5.3142    0.8716 H   0  0  0  0  0  0  0  0  0  0  0  0
   -5.8592    4.4192    0.3450 H   0  0  0  0  0  0  0  0  0  0  0  0
  1  2  1  0
  2  3  1  0
  3  4  2  0
  3  5  1  0
  5  6  1  0
  6  7  1  0
  7  8  2  0
  7  9  1  0
  9 10  2  0
 10 11  1  0
 11 12  2  0
 12 13  1  0
 13 14  2  0
 14 15  1  0
 15 16  1  0
 16 17  2  0
 16 18  1  0
 18 19  2  0
 19 20  1  0
 20 21  2  0
 21 22  1  0
 14  9  1  0
 22 18  1  0
  1 23  1  0
  1 24  1  0
  1 25  1  0
  2 26  1  0
  5 27  1  0
  5 28  1  0
 10 29  1  0
 11 30  1  0
 12 31  1  0
 13 32  1  0
 15 33  1  0
 19 34  1  0
 20 35  1  0
 21 36  1  0
M  END
$$$$
