
     RDKit          3D

 36 37  0  0  0  0  0  0  0  0999 V2000
   -6.7697    0.4649   -1.1495 C   0  0  0  0  0  0  0  0  0  0  0  0
   -5.3009    0.8076   -1.2024 C   0  0  0  0  0  0  0  0  0  0  0  0
   -4.8616    1.5215   -2.0973 O   0  0  0  0  0  0  0  0  0  0  0  0
   -4.5800    0.2182   -0.1806 N   0  0  0  0  0  0  0  0  0  0  0  0
   -3.1933    0.3120    0.0562 C   0  0  0  0  0  0  0  0  0  0  0  0
   -2.3062    1.0155   -0.7548 C   0  0  0  0  0  0  0  0  0  0  0  0
   -0.9393    1.0530   -0.4483 C   0  0  0  0  0  0  0  0  0  0  0  0
   -0.4356    0.3910    0.6756 C   0  0  0  0  0  0  0  0  0  0  0  0
    0.9505    0.4822    0.9113 N   0  0  0  0  0  0  0  0  0  0  0  0
    1.6770   -0.1088    1.9313 C   0  0  0  0  0  0  0  0  0  0  0  0
    1.2314   -0.8204    2.8270 O   0  0  0  0  0  0  0  0  0  0  0  0
    3.1598    0.2359    1.8831 C   0  0  0  0  0  0  0  0  0  0  0  0
    3.8462   -0.1957    0.6064 C   0  0  0  0  0  0  0  0  0  0  0  0
    3.7920   -1.5356    0.1877 C   0  0  0  0  0  0  0  0  0  0  0  0
    4.4290   -1.9350   -0.9877 C   0  0  0  0  0  0  0  0  0  0  0  0
    5.1286   -1.0006   -1.7388 C   0  0  0  0  0  0  0  0  0  0  0  0
    5.7429   -1.3854   -2.8652 F   0  0  0  0  0  0  0  0  0  0  0  0
    5.2049    0.3273   -1.3362 C   0  0  0  0  0  0  0  0  0  0  0  0
    4.5664    0.7321   -0.1624 C   0  0  0  0  0  0  0  0  0  0  0  0
   -1.3230   -0.3096    1.4889 C   0  0  0  0  0  0  0  0  0  0  0  0
   -2.6898   -0.3487    1.1803 C   0  0  0  0  0  0  0  0  0  0  0  0
   -7.3528    1.3363   -1.4599 H   0  0  0  0  0  0  0  0  0  0  0  0
   -7.0853    0.1922   -0.1392 H   0  0  0  0  0  0  0  0  0  0  0  0
   -6.9677   -0.3687   -1.8276 H   0  0  0  0  0  0  0  0  0  0  0  0
   -5.1004   -0.3450    0.4789 H   0  0  0  0  0  0  0  0  0  0  0  0
   -2.6410    1.5479   -1.6397 H   0  0  0  0  0  0  0  0  0  0  0  0
   -0.2811    1.6115   -1.1104 H   0  0  0  0  0  0  0  0  0  0  0  0
    1.4803    1.0122    0.2291 H   0  0  0  0  0  0  0  0  0  0  0  0
    3.2529    1.3198    2.0312 H   0  0  0  0  0  0  0  0  0  0  0  0
    3.6620   -0.2431    2.7326 H   0  0  0  0  0  0  0  0  0  0  0  0
    3.2518   -2.2771    0.7749 H   0  0  0  0  0  0  0  0  0  0  0  0
    4.3845   -2.9669   -1.3207 H   0  0  0  0  0  0  0  0  0  0  0  0
    5.7634    1.0363   -1.9388 H   0  0  0  0  0  0  0  0  0  0  0  0
    4.6404    1.7722    0.1463 H   0  0  0  0  0  0  0  0  0  0  0  0
   -0.9888   -0.8396    2.3761 H   0  0  0  0  0  0  0  0  0  0  0  0
   -3.3473   -0.9055    1.8425 H   0  0  0  0  0  0  0  0  0  0  0  0
  1  2  1  0
  2  3  2  0
  2  4  1  0
  4  5  1  0
  5  6  2  0
  6  7  1  0
  7  8  2  0
  8  9  1  0
  9 10  1  0
 10 11  2  0
 10 12  1  0
 12 13  1  0
 13 14  2  0
 14 15  1  0
 15 16  2  0
 16 17  1  0
 16 18  1  0
 18 19  2  0
  8 20  1  0
 20 21  2  0
 21  5  1  0
 19 13  1  0
  1 22  1  0
  1 23  1  0
  1 24  1  0
  4 25  1  0
  6 26  1  0
  7 27  1  0
  9 28  1  0
 12 29  1  0
 12 30  1  0
 14 31  1  0
 15 32  1  0
 18 33  1  0
 19 34  1  0
 20 35  1  0
 21 36  1  0
M  END
$$$$
