
     RDKit          3D

 37 40  0  0  0  0  0  0  0  0999 V2000
    1.0557    0.1858   -1.1006 O   0  0  0  0  0  0  0  0  0  0  0  0
    2.0709    0.1387   -0.4400 C   0  0  0  0  0  0  0  0  0  0  0  0
    3.2971   -0.2166   -0.9185 O   0  0  0  0  0  0  0  0  0  0  0  0
    4.1626   -0.0758    0.1126 C   0  0  0  0  0  0  0  0  0  0  0  0
    5.5200   -0.3906   -0.2076 C   0  0  0  0  0  0  0  0  0  0  0  0
    6.1246   -0.8170   -1.3771 C   0  0  0  0  0  0  0  0  0  0  0  0
    7.5041   -0.9674   -1.0946 C   0  0  0  0  0  0  0  0  0  0  0  0
    7.6617   -0.6253    0.2266 C   0  0  0  0  0  0  0  0  0  0  0  0
    6.4697   -0.2751    0.7721 O   0  0  0  0  0  0  0  0  0  0  0  0
    3.6918    0.3207    1.2485 N   0  0  0  0  0  0  0  0  0  0  0  0
    2.3453    0.4630    0.9970 C   0  0  0  0  0  0  0  0  0  0  0  0
    1.5025    0.8513    1.9631 C   0  0  0  0  0  0  0  0  0  0  0  0
    0.0957    0.9919    1.8504 C   0  0  0  0  0  0  0  0  0  0  0  0
   -0.7539    1.7263    2.6697 C   0  0  0  0  0  0  0  0  0  0  0  0
   -2.0775    1.5482    2.2003 C   0  0  0  0  0  0  0  0  0  0  0  0
   -1.9934    0.7037    1.1159 C   0  0  0  0  0  0  0  0  0  0  0  0
   -2.9630    0.1227    0.1905 C   0  0  0  0  0  0  0  0  0  0  0  0
   -2.5494   -0.5322   -0.9783 C   0  0  0  0  0  0  0  0  0  0  0  0
   -3.4785   -1.0867   -1.8615 C   0  0  0  0  0  0  0  0  0  0  0  0
   -4.8416   -0.9928   -1.5900 C   0  0  0  0  0  0  0  0  0  0  0  0
   -5.2885   -0.3360   -0.4356 C   0  0  0  0  0  0  0  0  0  0  0  0
   -6.7609   -0.2497   -0.1224 C   0  0  0  0  0  0  0  0  0  0  0  0
   -7.1900   -1.2917    0.6416 F   0  0  0  0  0  0  0  0  0  0  0  0
   -7.0944    0.8788    0.5654 F   0  0  0  0  0  0  0  0  0  0  0  0
   -7.5486   -0.2512   -1.2341 F   0  0  0  0  0  0  0  0  0  0  0  0
   -4.3399    0.2108    0.4491 C   0  0  0  0  0  0  0  0  0  0  0  0
   -0.6887    0.3608    0.9192 O   0  0  0  0  0  0  0  0  0  0  0  0
    5.6264   -0.9971   -2.3204 H   0  0  0  0  0  0  0  0  0  0  0  0
    8.2868   -1.2856   -1.7693 H   0  0  0  0  0  0  0  0  0  0  0  0
    8.5117   -0.5806    0.8939 H   0  0  0  0  0  0  0  0  0  0  0  0
    1.9329    1.0780    2.9357 H   0  0  0  0  0  0  0  0  0  0  0  0
   -0.4451    2.3289    3.5132 H   0  0  0  0  0  0  0  0  0  0  0  0
   -2.9770    1.9881    2.6061 H   0  0  0  0  0  0  0  0  0  0  0  0
   -1.4892   -0.6114   -1.2166 H   0  0  0  0  0  0  0  0  0  0  0  0
   -3.1321   -1.5900   -2.7610 H   0  0  0  0  0  0  0  0  0  0  0  0
   -5.5556   -1.4321   -2.2851 H   0  0  0  0  0  0  0  0  0  0  0  0
   -4.6921    0.7072    1.3523 H   0  0  0  0  0  0  0  0  0  0  0  0
  1  2  2  0
  2  3  1  0
  3  4  1  0
  4  5  1  0
  5  6  2  0
  6  7  1  0
  7  8  2  0
  8  9  1  0
  4 10  2  0
 10 11  1  0
 11 12  2  3
 12 13  1  0
 13 14  2  0
 14 15  1  0
 15 16  2  0
 16 17  1  0
 17 18  2  0
 18 19  1  0
 19 20  2  0
 20 21  1  0
 21 22  1  0
 22 23  1  0
 22 24  1  0
 22 25  1  0
 21 26  2  0
 16 27  1  0
 11  2  1  0
 27 13  1  0
  9  5  1  0
 26 17  1  0
  6 28  1  0
  7 29  1  0
  8 30  1  0
 12 31  1  0
 14 32  1  0
 15 33  1  0
 18 34  1  0
 19 35  1  0
 20 36  1  0
 26 37  1  0
M  END
$$$$
