
     RDKit          3D

 48 49  0  0  0  0  0  0  0  0999 V2000
    0.8931    3.5333    0.8454 C   0  0  0  0  0  0  0  0  0  0  0  0
    1.5708    2.3950    0.3305 O   0  0  0  0  0  0  0  0  0  0  0  0
    0.8086    1.4187   -0.2581 C   0  0  0  0  0  0  0  0  0  0  0  0
   -0.5882    1.3548   -0.1939 C   0  0  0  0  0  0  0  0  0  0  0  0
   -1.2930    0.3267   -0.8434 C   0  0  0  0  0  0  0  0  0  0  0  0
   -2.8019    0.2518   -0.7637 C   0  0  0  0  0  0  0  0  0  0  0  0
   -3.2010   -0.8096    0.1541 N   0  0  0  0  0  0  0  0  0  0  0  0
   -4.6555   -1.0302    0.3051 C   0  0  0  0  0  0  0  0  0  0  0  0
   -5.2711   -1.5103   -1.0227 C   0  0  0  0  0  0  0  0  0  0  0  0
   -4.8040   -2.1727    1.3322 C   0  0  0  0  0  0  0  0  0  0  0  0
   -5.4033    0.2293    0.8297 C   0  0  0  0  0  0  0  0  0  0  0  0
   -6.7673   -0.0271    1.1498 O   0  0  0  0  0  0  0  0  0  0  0  0
   -0.5803   -0.6505   -1.5532 C   0  0  0  0  0  0  0  0  0  0  0  0
    0.8119   -0.5993   -1.6181 C   0  0  0  0  0  0  0  0  0  0  0  0
    1.7151   -1.9440   -2.6072 Br  0  0  0  0  0  0  0  0  0  0  0  0
    1.5076    0.4190   -0.9568 C   0  0  0  0  0  0  0  0  0  0  0  0
    2.8778    0.4765   -1.0594 O   0  0  0  0  0  0  0  0  0  0  0  0
    3.4903   -0.0351    0.1276 C   0  0  0  0  0  0  0  0  0  0  0  0
    4.9713   -0.1632   -0.1348 C   0  0  0  0  0  0  0  0  0  0  0  0
    5.8177    0.9426    0.0345 C   0  0  0  0  0  0  0  0  0  0  0  0
    7.1855    0.8334   -0.2253 C   0  0  0  0  0  0  0  0  0  0  0  0
    7.7112   -0.3795   -0.6650 C   0  0  0  0  0  0  0  0  0  0  0  0
    9.3967   -0.5144   -0.9856 Cl  0  0  0  0  0  0  0  0  0  0  0  0
    6.8808   -1.4825   -0.8521 C   0  0  0  0  0  0  0  0  0  0  0  0
    5.5128   -1.3734   -0.5921 C   0  0  0  0  0  0  0  0  0  0  0  0
    1.6499    4.2537    1.1707 H   0  0  0  0  0  0  0  0  0  0  0  0
    0.2907    3.2670    1.7198 H   0  0  0  0  0  0  0  0  0  0  0  0
    0.2825    4.0166    0.0754 H   0  0  0  0  0  0  0  0  0  0  0  0
   -1.1550    2.0969    0.3599 H   0  0  0  0  0  0  0  0  0  0  0  0
   -3.1821    0.0748   -1.7760 H   0  0  0  0  0  0  0  0  0  0  0  0
   -3.1912    1.2231   -0.4394 H   0  0  0  0  0  0  0  0  0  0  0  0
   -2.7856   -0.6290    1.0686 H   0  0  0  0  0  0  0  0  0  0  0  0
   -5.3103   -0.7079   -1.7670 H   0  0  0  0  0  0  0  0  0  0  0  0
   -6.2960   -1.8714   -0.8809 H   0  0  0  0  0  0  0  0  0  0  0  0
   -4.6950   -2.3393   -1.4507 H   0  0  0  0  0  0  0  0  0  0  0  0
   -4.2651   -3.0720    1.0096 H   0  0  0  0  0  0  0  0  0  0  0  0
   -5.8534   -2.4573    1.4699 H   0  0  0  0  0  0  0  0  0  0  0  0
   -4.4096   -1.8815    2.3130 H   0  0  0  0  0  0  0  0  0  0  0  0
   -5.3854    1.0429    0.0968 H   0  0  0  0  0  0  0  0  0  0  0  0
   -4.9240    0.5995    1.7431 H   0  0  0  0  0  0  0  0  0  0  0  0
   -7.2400   -0.2078    0.3197 H   0  0  0  0  0  0  0  0  0  0  0  0
   -1.1228   -1.4542   -2.0477 H   0  0  0  0  0  0  0  0  0  0  0  0
    3.3312    0.6404    0.9770 H   0  0  0  0  0  0  0  0  0  0  0  0
    3.0777   -1.0168    0.3970 H   0  0  0  0  0  0  0  0  0  0  0  0
    5.4095    1.8971    0.3612 H   0  0  0  0  0  0  0  0  0  0  0  0
    7.8306    1.6970   -0.0900 H   0  0  0  0  0  0  0  0  0  0  0  0
    7.2885   -2.4255   -1.2056 H   0  0  0  0  0  0  0  0  0  0  0  0
    4.8693   -2.2354   -0.7561 H   0  0  0  0  0  0  0  0  0  0  0  0
  1  2  1  0
  2  3  1  0
  3  4  2  0
  4  5  1  0
  5  6  1  0
  6  7  1  0
  7  8  1  0
  8  9  1  0
  8 10  1  0
  8 11  1  0
 11 12  1  0
  5 13  2  0
 13 14  1  0
 14 15  1  0
 14 16  2  0
 16 17  1  0
 17 18  1  0
 18 19  1  0
 19 20  2  0
 20 21  1  0
 21 22  2  0
 22 23  1  0
 22 24  1  0
 24 25  2  0
 16  3  1  0
 25 19  1  0
  1 26  1  0
  1 27  1  0
  1 28  1  0
  4 29  1  0
  6 30  1  0
  6 31  1  0
  7 32  1  0
  9 33  1  0
  9 34  1  0
  9 35  1  0
 10 36  1  0
 10 37  1  0
 10 38  1  0
 11 39  1  0
 11 40  1  0
 12 41  1  0
 13 42  1  0
 18 43  1  0
 18 44  1  0
 20 45  1  0
 21 46  1  0
 24 47  1  0
 25 48  1  0
M  END
$$$$
