
     RDKit          3D

 45 47  0  0  0  0  0  0  0  0999 V2000
    6.0377   -0.9851   -1.6180 C   0  0  0  0  0  0  0  0  0  0  0  0
    4.8915   -0.1600   -2.1550 C   0  0  0  0  0  0  0  0  0  0  0  0
    5.0911    0.7441   -3.0652 N   0  0  0  0  0  0  0  0  0  0  0  0
    3.4848   -0.3672   -1.6308 C   0  0  0  0  0  0  0  0  0  0  0  0
    3.4674   -0.4411   -0.1708 C   0  0  0  0  0  0  0  0  0  0  0  0
    3.4435   -0.4832    0.9891 N   0  0  0  0  0  0  0  0  0  0  0  0
    2.8215   -1.5893   -2.2187 C   0  0  0  0  0  0  0  0  0  0  0  0
    3.4521   -2.6146   -2.4856 O   0  0  0  0  0  0  0  0  0  0  0  0
    1.3378   -1.4743   -2.5498 C   0  0  0  0  0  0  0  0  0  0  0  0
    0.5593   -0.8132   -1.5541 O   0  0  0  0  0  0  0  0  0  0  0  0
    0.1967   -1.5965   -0.5027 C   0  0  0  0  0  0  0  0  0  0  0  0
    0.5537   -2.7463   -0.3274 O   0  0  0  0  0  0  0  0  0  0  0  0
   -0.6850   -0.8209    0.4034 C   0  0  0  0  0  0  0  0  0  0  0  0
   -1.6782   -0.0255   -0.1799 C   0  0  0  0  0  0  0  0  0  0  0  0
   -2.5337    0.6878    0.6421 C   0  0  0  0  0  0  0  0  0  0  0  0
   -3.6109    1.5593    0.1274 C   0  0  0  0  0  0  0  0  0  0  0  0
   -4.8049    1.7289    0.8557 C   0  0  0  0  0  0  0  0  0  0  0  0
   -5.8405    2.5449    0.3889 C   0  0  0  0  0  0  0  0  0  0  0  0
   -5.7032    3.2181   -0.8210 C   0  0  0  0  0  0  0  0  0  0  0  0
   -4.5286    3.0743   -1.5521 C   0  0  0  0  0  0  0  0  0  0  0  0
   -4.3287    3.9953   -3.1923 Br  0  0  0  0  0  0  0  0  0  0  0  0
   -3.4921    2.2584   -1.0881 C   0  0  0  0  0  0  0  0  0  0  0  0
   -2.4352    0.6122    1.9895 N   0  0  0  0  0  0  0  0  0  0  0  0
   -1.4855   -0.1514    2.5552 C   0  0  0  0  0  0  0  0  0  0  0  0
   -1.4222   -0.1854    3.9420 C   0  0  0  0  0  0  0  0  0  0  0  0
   -0.4658   -0.9413    4.6214 C   0  0  0  0  0  0  0  0  0  0  0  0
    0.4561   -1.6839    3.9007 C   0  0  0  0  0  0  0  0  0  0  0  0
    0.4113   -1.6683    2.5073 C   0  0  0  0  0  0  0  0  0  0  0  0
   -0.5613   -0.9063    1.8089 C   0  0  0  0  0  0  0  0  0  0  0  0
    6.9002   -0.9279   -2.2883 H   0  0  0  0  0  0  0  0  0  0  0  0
    5.7460   -2.0323   -1.5159 H   0  0  0  0  0  0  0  0  0  0  0  0
    6.3303   -0.5980   -0.6382 H   0  0  0  0  0  0  0  0  0  0  0  0
    6.0837    0.7888   -3.3334 H   0  0  0  0  0  0  0  0  0  0  0  0
    2.9022    0.5065   -1.9501 H   0  0  0  0  0  0  0  0  0  0  0  0
    0.9298   -2.4687   -2.7671 H   0  0  0  0  0  0  0  0  0  0  0  0
    1.2555   -0.8877   -3.4708 H   0  0  0  0  0  0  0  0  0  0  0  0
   -1.7929    0.0077   -1.2582 H   0  0  0  0  0  0  0  0  0  0  0  0
   -4.9341    1.2143    1.8080 H   0  0  0  0  0  0  0  0  0  0  0  0
   -6.7500    2.6539    0.9751 H   0  0  0  0  0  0  0  0  0  0  0  0
   -6.5096    3.8528   -1.1788 H   0  0  0  0  0  0  0  0  0  0  0  0
   -2.5793    2.1886   -1.6745 H   0  0  0  0  0  0  0  0  0  0  0  0
   -2.1388    0.4001    4.5142 H   0  0  0  0  0  0  0  0  0  0  0  0
   -0.4423   -0.9417    5.7081 H   0  0  0  0  0  0  0  0  0  0  0  0
    1.2137   -2.2707    4.4144 H   0  0  0  0  0  0  0  0  0  0  0  0
    1.1566   -2.2549    1.9730 H   0  0  0  0  0  0  0  0  0  0  0  0
  1  2  1  0
  2  3  2  3
  2  4  1  0
  4  5  1  0
  5  6  3  0
  4  7  1  0
  7  8  2  0
  7  9  1  0
  9 10  1  0
 10 11  1  0
 11 12  2  0
 11 13  1  0
 13 14  2  0
 14 15  1  0
 15 16  1  0
 16 17  2  0
 17 18  1  0
 18 19  2  0
 19 20  1  0
 20 21  1  0
 20 22  2  0
 15 23  2  0
 23 24  1  0
 24 25  2  0
 25 26  1  0
 26 27  2  0
 27 28  1  0
 28 29  2  0
 29 13  1  0
 22 16  1  0
 29 24  1  0
  1 30  1  0
  1 31  1  0
  1 32  1  0
  3 33  1  0
  4 34  1  0
  9 35  1  0
  9 36  1  0
 14 37  1  0
 17 38  1  0
 18 39  1  0
 19 40  1  0
 22 41  1  0
 25 42  1  0
 26 43  1  0
 27 44  1  0
 28 45  1  0
M  END
$$$$
