
     RDKit          3D

 43 44  0  0  0  0  0  0  0  0999 V2000
    7.6084   -0.6473    0.9599 C   0  0  0  0  0  0  0  0  0  0  0  0
    6.5193   -0.2220    0.1396 O   0  0  0  0  0  0  0  0  0  0  0  0
    5.3227   -0.2060    0.7793 C   0  0  0  0  0  0  0  0  0  0  0  0
    5.1334   -0.5208    1.9434 O   0  0  0  0  0  0  0  0  0  0  0  0
    4.2432    0.2494   -0.1379 C   0  0  0  0  0  0  0  0  0  0  0  0
    4.4870    0.5918   -1.4743 C   0  0  0  0  0  0  0  0  0  0  0  0
    3.4391    1.0235   -2.2935 C   0  0  0  0  0  0  0  0  0  0  0  0
    2.1313    1.0847   -1.8042 C   0  0  0  0  0  0  0  0  0  0  0  0
    1.1223    1.6511   -2.6040 N   0  0  0  0  0  0  0  0  0  0  0  0
    1.8904    0.7661   -0.4475 C   0  0  0  0  0  0  0  0  0  0  0  0
    0.5959    0.8722    0.0971 N   0  0  0  0  0  0  0  0  0  0  0  0
   -0.1827   -0.1392   -0.1204 C   0  0  0  0  0  0  0  0  0  0  0  0
   -1.6203   -0.0894    0.3135 C   0  0  0  0  0  0  0  0  0  0  0  0
   -2.5237    0.2506   -0.8449 C   0  0  0  0  0  0  0  0  0  0  0  0
   -2.0826    0.5451   -1.9579 O   0  0  0  0  0  0  0  0  0  0  0  0
   -4.0190    0.2731   -0.5871 C   0  0  0  0  0  0  0  0  0  0  0  0
   -4.4653   -0.5833    0.6189 C   0  0  0  0  0  0  0  0  0  0  0  0
   -5.8811   -1.1308    0.3401 C   0  0  0  0  0  0  0  0  0  0  0  0
   -4.5512    0.2731    1.8985 C   0  0  0  0  0  0  0  0  0  0  0  0
   -3.5153   -1.7779    0.8253 C   0  0  0  0  0  0  0  0  0  0  0  0
   -2.0613   -1.3710    0.9728 C   0  0  0  0  0  0  0  0  0  0  0  0
   -1.2769   -2.0911    1.5909 O   0  0  0  0  0  0  0  0  0  0  0  0
    2.9430    0.3467    0.3714 C   0  0  0  0  0  0  0  0  0  0  0  0
    7.4511   -1.6743    1.3040 H   0  0  0  0  0  0  0  0  0  0  0  0
    8.5186   -0.6209    0.3544 H   0  0  0  0  0  0  0  0  0  0  0  0
    7.7375    0.0316    1.8087 H   0  0  0  0  0  0  0  0  0  0  0  0
    5.4909    0.5474   -1.8896 H   0  0  0  0  0  0  0  0  0  0  0  0
    3.6534    1.3264   -3.3152 H   0  0  0  0  0  0  0  0  0  0  0  0
    0.1837    1.4801   -2.2413 H   0  0  0  0  0  0  0  0  0  0  0  0
    1.2039    1.4624   -3.5956 H   0  0  0  0  0  0  0  0  0  0  0  0
    0.1475   -1.0350   -0.6801 H   0  0  0  0  0  0  0  0  0  0  0  0
   -1.7152    0.7209    1.0448 H   0  0  0  0  0  0  0  0  0  0  0  0
   -4.3288    1.3172   -0.4664 H   0  0  0  0  0  0  0  0  0  0  0  0
   -4.4866   -0.1058   -1.5051 H   0  0  0  0  0  0  0  0  0  0  0  0
   -5.8920   -1.7730   -0.5480 H   0  0  0  0  0  0  0  0  0  0  0  0
   -6.2489   -1.7269    1.1830 H   0  0  0  0  0  0  0  0  0  0  0  0
   -6.5935   -0.3155    0.1702 H   0  0  0  0  0  0  0  0  0  0  0  0
   -5.2751    1.0874    1.7774 H   0  0  0  0  0  0  0  0  0  0  0  0
   -3.5948    0.7279    2.1667 H   0  0  0  0  0  0  0  0  0  0  0  0
   -4.8769   -0.3307    2.7534 H   0  0  0  0  0  0  0  0  0  0  0  0
   -3.5681   -2.4600   -0.0326 H   0  0  0  0  0  0  0  0  0  0  0  0
   -3.8035   -2.3430    1.7199 H   0  0  0  0  0  0  0  0  0  0  0  0
    2.7402    0.1056    1.4126 H   0  0  0  0  0  0  0  0  0  0  0  0
  1  2  1  0
  2  3  1  0
  3  4  2  0
  3  5  1  0
  5  6  2  0
  6  7  1  0
  7  8  2  0
  8  9  1  0
  8 10  1  0
 10 11  1  0
 11 12  2  3
 12 13  1  0
 13 14  1  0
 14 15  2  0
 14 16  1  0
 16 17  1  0
 17 18  1  0
 17 19  1  0
 17 20  1  0
 20 21  1  0
 21 22  2  0
 10 23  2  0
 23  5  1  0
 21 13  1  0
  1 24  1  0
  1 25  1  0
  1 26  1  0
  6 27  1  0
  7 28  1  0
  9 29  1  0
  9 30  1  0
 12 31  1  0
 13 32  1  0
 16 33  1  0
 16 34  1  0
 18 35  1  0
 18 36  1  0
 18 37  1  0
 19 38  1  0
 19 39  1  0
 19 40  1  0
 20 41  1  0
 20 42  1  0
 23 43  1  0
M  END
$$$$
