
     RDKit          3D

 31 33  0  0  0  0  0  0  0  0999 V2000
   -3.9379    0.4051    1.0992 O   0  0  0  0  0  0  0  0  0  0  0  0
   -3.1004   -0.4028    0.7197 C   0  0  0  0  0  0  0  0  0  0  0  0
   -3.3399   -1.7251    0.8415 O   0  0  0  0  0  0  0  0  0  0  0  0
   -1.7925   -0.0453    0.0240 C   0  0  0  0  0  0  0  0  0  0  0  0
   -1.9862    0.3112   -1.4283 C   0  0  0  0  0  0  0  0  0  0  0  0
   -0.8796    0.9473   -2.2352 C   0  0  0  0  0  0  0  0  0  0  0  0
   -1.0875   -0.5453   -2.2540 C   0  0  0  0  0  0  0  0  0  0  0  0
   -0.3187   -1.4552   -1.3478 C   0  0  0  0  0  0  0  0  0  0  0  0
   -0.8212   -1.1669    0.0019 N   0  0  0  0  0  0  0  0  0  0  0  0
    0.1234   -1.4513    1.3448 S   0  0  0  0  0  6  0  0  0  0  0  0
    0.8149   -2.7082    1.1543 O   0  0  0  0  0  0  0  0  0  0  0  0
   -0.6760   -1.1985    2.5248 O   0  0  0  0  0  0  0  0  0  0  0  0
    1.3532   -0.1590    1.2642 C   0  0  0  0  0  0  0  0  0  0  0  0
    1.1320    1.0523    1.9292 C   0  0  0  0  0  0  0  0  0  0  0  0
    2.1060    2.0519    1.8848 C   0  0  0  0  0  0  0  0  0  0  0  0
    3.2981    1.8276    1.1950 C   0  0  0  0  0  0  0  0  0  0  0  0
    4.6145    3.1830    1.1363 Br  0  0  0  0  0  0  0  0  0  0  0  0
    3.5326    0.6090    0.5568 C   0  0  0  0  0  0  0  0  0  0  0  0
    2.5614   -0.3934    0.5983 C   0  0  0  0  0  0  0  0  0  0  0  0
   -4.1777   -1.7812    1.3439 H   0  0  0  0  0  0  0  0  0  0  0  0
   -1.3663    0.8147    0.5496 H   0  0  0  0  0  0  0  0  0  0  0  0
   -3.0115    0.4660   -1.7332 H   0  0  0  0  0  0  0  0  0  0  0  0
   -0.0165    1.3469   -1.7145 H   0  0  0  0  0  0  0  0  0  0  0  0
   -1.1583    1.5081   -3.1208 H   0  0  0  0  0  0  0  0  0  0  0  0
   -1.4678   -1.0199   -3.1466 H   0  0  0  0  0  0  0  0  0  0  0  0
   -0.5217   -2.5022   -1.5930 H   0  0  0  0  0  0  0  0  0  0  0  0
    0.7518   -1.2642   -1.4476 H   0  0  0  0  0  0  0  0  0  0  0  0
    0.2143    1.2231    2.4884 H   0  0  0  0  0  0  0  0  0  0  0  0
    1.9317    2.9947    2.3980 H   0  0  0  0  0  0  0  0  0  0  0  0
    4.4694    0.4279    0.0352 H   0  0  0  0  0  0  0  0  0  0  0  0
    2.7565   -1.3503    0.1186 H   0  0  0  0  0  0  0  0  0  0  0  0
  1  2  2  0
  2  3  1  0
  2  4  1  0
  4  5  1  0
  5  6  1  0
  6  7  1  0
  7  8  1  0
  8  9  1  0
  9 10  1  0
 10 11  2  0
 10 12  2  0
 10 13  1  0
 13 14  2  0
 14 15  1  0
 15 16  2  0
 16 17  1  0
 16 18  1  0
 18 19  2  0
  9  4  1  0
 19 13  1  0
  7  5  1  0
  3 20  1  0
  4 21  1  0
  5 22  1  0
  6 23  1  0
  6 24  1  0
  7 25  1  0
  8 26  1  0
  8 27  1  0
 14 28  1  0
 15 29  1  0
 18 30  1  0
 19 31  1  0
M  END
$$$$
