
     RDKit          3D

 44 47  0  0  0  0  0  0  0  0999 V2000
    8.5715   -1.0059    0.4527 C   0  0  0  0  0  0  0  0  0  0  0  0
    7.0578   -0.9780    0.5637 C   0  0  0  0  0  0  0  0  0  0  0  0
    6.5365   -0.4047   -0.6427 O   0  0  0  0  0  0  0  0  0  0  0  0
    5.1680   -0.3480   -0.5920 C   0  0  0  0  0  0  0  0  0  0  0  0
    4.5799    0.8073   -0.0713 C   0  0  0  0  0  0  0  0  0  0  0  0
    3.1893    0.9254   -0.0378 C   0  0  0  0  0  0  0  0  0  0  0  0
    2.3897   -0.1075   -0.5469 C   0  0  0  0  0  0  0  0  0  0  0  0
    0.9044   -0.0223   -0.5208 C   0  0  0  0  0  0  0  0  0  0  0  0
    0.2764   -1.0442   -0.2785 O   0  0  0  0  0  0  0  0  0  0  0  0
    0.3915    1.2265   -0.8182 N   0  0  0  0  0  0  0  0  0  0  0  0
   -0.9657    1.6146   -0.8246 C   0  0  0  0  0  0  0  0  0  0  0  0
   -1.2540    2.9085   -1.2751 C   0  0  0  0  0  0  0  0  0  0  0  0
   -2.5688    3.3729   -1.3106 C   0  0  0  0  0  0  0  0  0  0  0  0
   -3.6101    2.5470   -0.8897 C   0  0  0  0  0  0  0  0  0  0  0  0
   -3.3486    1.2497   -0.4259 C   0  0  0  0  0  0  0  0  0  0  0  0
   -4.4215    0.3679    0.0336 C   0  0  0  0  0  0  0  0  0  0  0  0
   -4.3323   -0.8406    0.5627 N   0  0  0  0  0  0  0  0  0  0  0  0
   -5.6365   -1.1827    0.7997 C   0  0  0  0  0  0  0  0  0  0  0  0
   -6.2132   -2.3323    1.3477 C   0  0  0  0  0  0  0  0  0  0  0  0
   -7.6068   -2.3528    1.4480 C   0  0  0  0  0  0  0  0  0  0  0  0
   -8.3393   -1.2523    1.0064 C   0  0  0  0  0  0  0  0  0  0  0  0
   -7.8261   -0.1190    0.4706 N   0  0  0  0  0  0  0  0  0  0  0  0
   -6.4828   -0.1559    0.3997 C   0  0  0  0  0  0  0  0  0  0  0  0
   -5.7019    0.8460   -0.0942 O   0  0  0  0  0  0  0  0  0  0  0  0
   -2.0164    0.7965   -0.3990 C   0  0  0  0  0  0  0  0  0  0  0  0
    2.9820   -1.2629   -1.0732 C   0  0  0  0  0  0  0  0  0  0  0  0
    4.3719   -1.3759   -1.1098 C   0  0  0  0  0  0  0  0  0  0  0  0
    5.0685   -2.7924   -1.8060 Cl  0  0  0  0  0  0  0  0  0  0  0  0
    9.0207   -1.4388    1.3511 H   0  0  0  0  0  0  0  0  0  0  0  0
    8.9666    0.0060    0.3131 H   0  0  0  0  0  0  0  0  0  0  0  0
    8.8838   -1.5935   -0.4169 H   0  0  0  0  0  0  0  0  0  0  0  0
    6.7688   -0.3713    1.4309 H   0  0  0  0  0  0  0  0  0  0  0  0
    6.6842   -2.0002    0.6985 H   0  0  0  0  0  0  0  0  0  0  0  0
    5.2059    1.6094    0.3116 H   0  0  0  0  0  0  0  0  0  0  0  0
    2.7449    1.8115    0.4086 H   0  0  0  0  0  0  0  0  0  0  0  0
    1.0471    1.9258   -1.1419 H   0  0  0  0  0  0  0  0  0  0  0  0
   -0.4615    3.5726   -1.6102 H   0  0  0  0  0  0  0  0  0  0  0  0
   -2.7832    4.3780   -1.6653 H   0  0  0  0  0  0  0  0  0  0  0  0
   -4.6293    2.9282   -0.9237 H   0  0  0  0  0  0  0  0  0  0  0  0
   -5.6000   -3.1627    1.6765 H   0  0  0  0  0  0  0  0  0  0  0  0
   -8.1156   -3.2165    1.8650 H   0  0  0  0  0  0  0  0  0  0  0  0
   -9.4256   -1.2598    1.0800 H   0  0  0  0  0  0  0  0  0  0  0  0
   -1.8260   -0.2092   -0.0318 H   0  0  0  0  0  0  0  0  0  0  0  0
    2.3555   -2.0646   -1.4597 H   0  0  0  0  0  0  0  0  0  0  0  0
  1  2  1  0
  2  3  1  0
  3  4  1  0
  4  5  2  0
  5  6  1  0
  6  7  2  0
  7  8  1  0
  8  9  2  0
  8 10  1  0
 10 11  1  0
 11 12  2  0
 12 13  1  0
 13 14  2  0
 14 15  1  0
 15 16  1  0
 16 17  2  0
 17 18  1  0
 18 19  2  0
 19 20  1  0
 20 21  2  0
 21 22  1  0
 22 23  2  0
 23 24  1  0
 15 25  2  0
  7 26  1  0
 26 27  2  0
 27 28  1  0
 27  4  1  0
 25 11  1  0
 24 16  1  0
 23 18  1  0
  1 29  1  0
  1 30  1  0
  1 31  1  0
  2 32  1  0
  2 33  1  0
  5 34  1  0
  6 35  1  0
 10 36  1  0
 12 37  1  0
 13 38  1  0
 14 39  1  0
 19 40  1  0
 20 41  1  0
 21 42  1  0
 25 43  1  0
 26 44  1  0
M  END
$$$$
