
     RDKit          3D

 49 52  0  0  0  0  0  0  0  0999 V2000
    3.7864    0.4320   -1.3428 N   0  0  0  0  0  0  0  0  0  0  0  0
    2.7455   -0.0811   -1.4171 C   0  0  0  0  0  0  0  0  0  0  0  0
    1.4170   -0.6938   -1.5436 C   0  0  0  0  0  0  0  0  0  0  0  0
    1.4545   -2.0932   -0.9340 C   0  0  0  0  0  0  0  0  0  0  0  0
    1.7018   -3.0846   -1.6241 O   0  0  0  0  0  0  0  0  0  0  0  0
    1.2620   -2.1986    0.4230 N   0  0  0  0  0  0  0  0  0  0  0  0
    1.1872   -3.4762    1.0862 C   0  0  0  0  0  0  0  0  0  0  0  0
    0.8755   -3.2917    2.5471 C   0  0  0  0  0  0  0  0  0  0  0  0
   -0.4404   -3.4188    3.0160 C   0  0  0  0  0  0  0  0  0  0  0  0
   -0.7337   -3.2097    4.3645 C   0  0  0  0  0  0  0  0  0  0  0  0
    0.2816   -2.8651    5.2542 C   0  0  0  0  0  0  0  0  0  0  0  0
    1.5906   -2.7234    4.7965 C   0  0  0  0  0  0  0  0  0  0  0  0
    1.8867   -2.9331    3.4490 C   0  0  0  0  0  0  0  0  0  0  0  0
    0.3396    0.2248   -0.9926 C   0  0  0  0  0  0  0  0  0  0  0  0
    0.0565    0.1634    0.3441 N   0  0  0  0  0  0  0  0  0  0  0  0
   -0.8924    0.9902    0.8173 C   0  0  0  0  0  0  0  0  0  0  0  0
   -1.2236    0.9558    2.1664 C   0  0  0  0  0  0  0  0  0  0  0  0
   -2.2066    1.7950    2.6913 C   0  0  0  0  0  0  0  0  0  0  0  0
   -2.8684    2.6818    1.8524 C   0  0  0  0  0  0  0  0  0  0  0  0
   -2.5397    2.7224    0.4964 C   0  0  0  0  0  0  0  0  0  0  0  0
   -1.5617    1.8916   -0.0365 C   0  0  0  0  0  0  0  0  0  0  0  0
   -1.2669    1.9633   -1.3481 N   0  0  0  0  0  0  0  0  0  0  0  0
   -0.3095    1.1408   -1.8358 C   0  0  0  0  0  0  0  0  0  0  0  0
    0.0594    1.2461   -3.1932 N   0  0  0  0  0  0  0  0  0  0  0  0
   -1.1007    1.4714   -4.0859 C   0  0  0  0  0  0  0  0  0  0  0  0
   -0.9695    2.9061   -4.5795 C   0  0  0  0  0  0  0  0  0  0  0  0
    0.5334    3.0854   -4.6413 C   0  0  0  0  0  0  0  0  0  0  0  0
    0.9970    2.3842   -3.3700 C   0  0  0  0  0  0  0  0  0  0  0  0
    1.2079   -0.8745   -2.6064 H   0  0  0  0  0  0  0  0  0  0  0  0
    0.8421   -1.3947    0.8931 H   0  0  0  0  0  0  0  0  0  0  0  0
    2.1418   -3.9989    0.9545 H   0  0  0  0  0  0  0  0  0  0  0  0
    0.4194   -4.0833    0.5928 H   0  0  0  0  0  0  0  0  0  0  0  0
   -1.2436   -3.6811    2.3311 H   0  0  0  0  0  0  0  0  0  0  0  0
   -1.7555   -3.3165    4.7206 H   0  0  0  0  0  0  0  0  0  0  0  0
    0.0541   -2.7037    6.3053 H   0  0  0  0  0  0  0  0  0  0  0  0
    2.3822   -2.4478    5.4884 H   0  0  0  0  0  0  0  0  0  0  0  0
    2.9114   -2.8093    3.1025 H   0  0  0  0  0  0  0  0  0  0  0  0
   -0.7055    0.2606    2.8237 H   0  0  0  0  0  0  0  0  0  0  0  0
   -2.4501    1.7530    3.7501 H   0  0  0  0  0  0  0  0  0  0  0  0
   -3.6364    3.3419    2.2472 H   0  0  0  0  0  0  0  0  0  0  0  0
   -3.0563    3.4165   -0.1616 H   0  0  0  0  0  0  0  0  0  0  0  0
   -2.0791    1.2745   -3.6333 H   0  0  0  0  0  0  0  0  0  0  0  0
   -1.0002    0.7828   -4.9338 H   0  0  0  0  0  0  0  0  0  0  0  0
   -1.4067    3.6027   -3.8546 H   0  0  0  0  0  0  0  0  0  0  0  0
   -1.4561    3.0629   -5.5460 H   0  0  0  0  0  0  0  0  0  0  0  0
    0.9409    2.5785   -5.5243 H   0  0  0  0  0  0  0  0  0  0  0  0
    0.8370    4.1353   -4.6761 H   0  0  0  0  0  0  0  0  0  0  0  0
    0.9666    3.0932   -2.5316 H   0  0  0  0  0  0  0  0  0  0  0  0
    2.0246    2.0231   -3.4765 H   0  0  0  0  0  0  0  0  0  0  0  0
  1  2  3  0
  2  3  1  0
  3  4  1  0
  4  5  2  0
  4  6  1  0
  6  7  1  0
  7  8  1  0
  8  9  2  0
  9 10  1  0
 10 11  2  0
 11 12  1  0
 12 13  2  0
  3 14  1  0
 14 15  2  0
 15 16  1  0
 16 17  2  0
 17 18  1  0
 18 19  2  0
 19 20  1  0
 20 21  2  0
 21 22  1  0
 22 23  2  0
 23 24  1  0
 24 25  1  0
 25 26  1  0
 26 27  1  0
 27 28  1  0
 13  8  1  0
 23 14  1  0
 28 24  1  0
 21 16  1  0
  3 29  1  0
  6 30  1  0
  7 31  1  0
  7 32  1  0
  9 33  1  0
 10 34  1  0
 11 35  1  0
 12 36  1  0
 13 37  1  0
 17 38  1  0
 18 39  1  0
 19 40  1  0
 20 41  1  0
 25 42  1  0
 25 43  1  0
 26 44  1  0
 26 45  1  0
 27 46  1  0
 27 47  1  0
 28 48  1  0
 28 49  1  0
M  END
$$$$
