
     RDKit          3D

 43 46  0  0  0  0  0  0  0  0999 V2000
    3.9114   -1.0922    0.9424 O   0  0  0  0  0  0  0  0  0  0  0  0
    2.8328   -0.8570    0.4451 C   0  0  0  0  0  0  0  0  0  0  0  0
    2.3004    0.3582   -0.2429 C   0  0  0  0  0  0  0  0  0  0  0  0
    2.8581    1.5595   -0.4331 C   0  0  0  0  0  0  0  0  0  0  0  0
    4.1172    1.9697    0.0735 C   0  0  0  0  0  0  0  0  0  0  0  0
    4.9998    2.8989   -0.4690 C   0  0  0  0  0  0  0  0  0  0  0  0
    6.1124    3.0054    0.3990 C   0  0  0  0  0  0  0  0  0  0  0  0
    5.8524    2.1537    1.4406 C   0  0  0  0  0  0  0  0  0  0  0  0
    4.6561    1.5456    1.2644 O   0  0  0  0  0  0  0  0  0  0  0  0
    1.0192    0.0892   -0.7479 O   0  0  0  0  0  0  0  0  0  0  0  0
    0.7055   -1.1952   -0.3655 C   0  0  0  0  0  0  0  0  0  0  0  0
    1.7334   -1.8077    0.3424 C   0  0  0  0  0  0  0  0  0  0  0  0
    1.6448   -3.1021    0.8139 C   0  0  0  0  0  0  0  0  0  0  0  0
    0.4601   -3.7934    0.5562 C   0  0  0  0  0  0  0  0  0  0  0  0
   -0.5859   -3.1734   -0.1576 C   0  0  0  0  0  0  0  0  0  0  0  0
   -1.7385   -3.8721   -0.3952 O   0  0  0  0  0  0  0  0  0  0  0  0
   -0.4857   -1.8548   -0.6343 C   0  0  0  0  0  0  0  0  0  0  0  0
   -1.5974   -1.1739   -1.3921 C   0  0  0  0  0  0  0  0  0  0  0  0
   -2.2177   -0.0605   -0.6455 N   0  0  0  0  0  0  0  0  0  0  0  0
   -3.0478    0.7470   -1.5528 C   0  0  0  0  0  0  0  0  0  0  0  0
   -3.6633    1.9442   -0.8274 C   0  0  0  0  0  0  0  0  0  0  0  0
   -4.4733    1.5000    0.3838 C   0  0  0  0  0  0  0  0  0  0  0  0
   -3.6351    0.5960    1.2787 C   0  0  0  0  0  0  0  0  0  0  0  0
   -3.0174   -0.5584    0.4865 C   0  0  0  0  0  0  0  0  0  0  0  0
    2.3054    2.2897   -1.0172 H   0  0  0  0  0  0  0  0  0  0  0  0
    4.8536    3.4308   -1.3991 H   0  0  0  0  0  0  0  0  0  0  0  0
    6.9901    3.6241    0.2804 H   0  0  0  0  0  0  0  0  0  0  0  0
    6.3846    1.8799    2.3406 H   0  0  0  0  0  0  0  0  0  0  0  0
    2.4660   -3.5550    1.3595 H   0  0  0  0  0  0  0  0  0  0  0  0
    0.3612   -4.8142    0.9157 H   0  0  0  0  0  0  0  0  0  0  0  0
   -1.6646   -4.7541    0.0061 H   0  0  0  0  0  0  0  0  0  0  0  0
   -2.3594   -1.8931   -1.7183 H   0  0  0  0  0  0  0  0  0  0  0  0
   -1.1471   -0.7907   -2.3186 H   0  0  0  0  0  0  0  0  0  0  0  0
   -2.4325    1.1325   -2.3750 H   0  0  0  0  0  0  0  0  0  0  0  0
   -3.8442    0.1373   -1.9998 H   0  0  0  0  0  0  0  0  0  0  0  0
   -4.3055    2.5043   -1.5164 H   0  0  0  0  0  0  0  0  0  0  0  0
   -2.8673    2.6275   -0.5051 H   0  0  0  0  0  0  0  0  0  0  0  0
   -5.3664    0.9582    0.0490 H   0  0  0  0  0  0  0  0  0  0  0  0
   -4.8182    2.3736    0.9476 H   0  0  0  0  0  0  0  0  0  0  0  0
   -2.8379    1.1851    1.7498 H   0  0  0  0  0  0  0  0  0  0  0  0
   -4.2579    0.1975    2.0876 H   0  0  0  0  0  0  0  0  0  0  0  0
   -2.3890   -1.1296    1.1791 H   0  0  0  0  0  0  0  0  0  0  0  0
   -3.8122   -1.2305    0.1369 H   0  0  0  0  0  0  0  0  0  0  0  0
  1  2  2  0
  2  3  1  0
  3  4  2  3
  4  5  1  0
  5  6  2  0
  6  7  1  0
  7  8  2  0
  8  9  1  0
  3 10  1  0
 10 11  1  0
 11 12  2  0
 12 13  1  0
 13 14  2  0
 14 15  1  0
 15 16  1  0
 15 17  2  0
 17 18  1  0
 18 19  1  0
 19 20  1  0
 20 21  1  0
 21 22  1  0
 22 23  1  0
 23 24  1  0
 12  2  1  0
 24 19  1  0
  9  5  1  0
 17 11  1  0
  4 25  1  0
  6 26  1  0
  7 27  1  0
  8 28  1  0
 13 29  1  0
 14 30  1  0
 16 31  1  0
 18 32  1  0
 18 33  1  0
 20 34  1  0
 20 35  1  0
 21 36  1  0
 21 37  1  0
 22 38  1  0
 22 39  1  0
 23 40  1  0
 23 41  1  0
 24 42  1  0
 24 43  1  0
M  END
$$$$
