
     RDKit          3D

 42 45  0  0  0  0  0  0  0  0999 V2000
    1.0035    2.1881    3.5322 O   0  0  0  0  0  0  0  0  0  0  0  0
    0.2119    2.0526    2.6047 C   0  0  0  0  0  0  0  0  0  0  0  0
   -1.0607    2.5281    2.7012 N   0  0  0  0  0  0  0  0  0  0  0  0
   -2.1105    2.1379    1.9270 C   0  0  0  0  0  0  0  0  0  0  0  0
   -3.2589    2.3080    2.3338 O   0  0  0  0  0  0  0  0  0  0  0  0
   -1.8039    1.5604    0.7139 N   0  0  0  0  0  0  0  0  0  0  0  0
   -2.9145    1.2120   -0.1729 C   0  0  0  0  0  0  0  0  0  0  0  0
   -3.5456   -0.1279    0.2265 C   0  0  0  0  0  0  0  0  0  0  0  0
   -4.7058   -0.5277   -0.6711 C   0  0  0  0  0  0  0  0  0  0  0  0
   -4.6984   -2.0288   -0.5284 C   0  0  0  0  0  0  0  0  0  0  0  0
   -3.2162   -2.3304   -0.4795 C   0  0  0  0  0  0  0  0  0  0  0  0
   -2.5803   -1.1967    0.1288 O   0  0  0  0  0  0  0  0  0  0  0  0
   -0.5106    1.3075    0.2743 C   0  0  0  0  0  0  0  0  0  0  0  0
   -0.2356    1.1228   -0.9081 O   0  0  0  0  0  0  0  0  0  0  0  0
    0.5248    1.3462    1.3413 C   0  0  0  0  0  0  0  0  0  0  0  0
    1.7441    0.7745    1.2665 C   0  0  0  0  0  0  0  0  0  0  0  0
    2.3037   -0.0494    0.2432 C   0  0  0  0  0  0  0  0  0  0  0  0
    1.6556   -1.0672   -0.4201 C   0  0  0  0  0  0  0  0  0  0  0  0
    2.5421   -1.6263   -1.3020 N   0  0  0  0  0  0  0  0  0  0  0  0
    3.7761   -1.0286   -1.1837 C   0  0  0  0  0  0  0  0  0  0  0  0
    4.9744   -1.2927   -1.8582 C   0  0  0  0  0  0  0  0  0  0  0  0
    6.0889   -0.5164   -1.5280 C   0  0  0  0  0  0  0  0  0  0  0  0
    6.0057    0.4846   -0.5634 C   0  0  0  0  0  0  0  0  0  0  0  0
    4.7993    0.7376    0.1000 C   0  0  0  0  0  0  0  0  0  0  0  0
    3.6582   -0.0322   -0.2124 C   0  0  0  0  0  0  0  0  0  0  0  0
   -1.3084    2.9174    3.5999 H   0  0  0  0  0  0  0  0  0  0  0  0
   -2.5572    1.1565   -1.2070 H   0  0  0  0  0  0  0  0  0  0  0  0
   -3.6698    2.0057   -0.1265 H   0  0  0  0  0  0  0  0  0  0  0  0
   -3.8765   -0.1025    1.2719 H   0  0  0  0  0  0  0  0  0  0  0  0
   -4.5076   -0.2572   -1.7154 H   0  0  0  0  0  0  0  0  0  0  0  0
   -5.6515   -0.0674   -0.3718 H   0  0  0  0  0  0  0  0  0  0  0  0
   -5.1702   -2.3142    0.4193 H   0  0  0  0  0  0  0  0  0  0  0  0
   -5.2138   -2.5509   -1.3386 H   0  0  0  0  0  0  0  0  0  0  0  0
   -2.8009   -2.4434   -1.4866 H   0  0  0  0  0  0  0  0  0  0  0  0
   -2.9892   -3.2326    0.0952 H   0  0  0  0  0  0  0  0  0  0  0  0
    2.4246    0.9295    2.1049 H   0  0  0  0  0  0  0  0  0  0  0  0
    0.6384   -1.4333   -0.3637 H   0  0  0  0  0  0  0  0  0  0  0  0
    2.3281   -2.3788   -1.9407 H   0  0  0  0  0  0  0  0  0  0  0  0
    5.0423   -2.0707   -2.6112 H   0  0  0  0  0  0  0  0  0  0  0  0
    7.0345   -0.6967   -2.0340 H   0  0  0  0  0  0  0  0  0  0  0  0
    6.8841    1.0784   -0.3232 H   0  0  0  0  0  0  0  0  0  0  0  0
    4.7455    1.5245    0.8463 H   0  0  0  0  0  0  0  0  0  0  0  0
  1  2  2  0
  2  3  1  0
  3  4  1  0
  4  5  2  0
  4  6  1  0
  6  7  1  0
  7  8  1  0
  8  9  1  0
  9 10  1  0
 10 11  1  0
 11 12  1  0
  6 13  1  0
 13 14  2  0
 13 15  1  0
 15 16  2  3
 16 17  1  0
 17 18  2  0
 18 19  1  0
 19 20  1  0
 20 21  2  0
 21 22  1  0
 22 23  2  0
 23 24  1  0
 24 25  2  0
 15  2  1  0
 25 17  1  0
 12  8  1  0
 25 20  1  0
  3 26  1  0
  7 27  1  0
  7 28  1  0
  8 29  1  0
  9 30  1  0
  9 31  1  0
 10 32  1  0
 10 33  1  0
 11 34  1  0
 11 35  1  0
 16 36  1  0
 18 37  1  0
 19 38  1  0
 21 39  1  0
 22 40  1  0
 23 41  1  0
 24 42  1  0
M  END
$$$$
