
     RDKit          3D

 50 53  0  0  0  0  0  0  0  0999 V2000
    1.1680    4.0991    0.0764 C   0  0  0  0  0  0  0  0  0  0  0  0
    0.9753    3.0135    1.1247 C   0  0  0  0  0  0  0  0  0  0  0  0
    0.6049    1.6886    0.5014 C   0  0  0  0  0  0  0  0  0  0  0  0
    1.6138    0.7593    0.2018 C   0  0  0  0  0  0  0  0  0  0  0  0
    1.3107   -0.4687   -0.3974 C   0  0  0  0  0  0  0  0  0  0  0  0
    2.3533   -1.4543   -0.7271 C   0  0  0  0  0  0  0  0  0  0  0  0
    3.7980   -1.3014   -0.4691 C   0  0  0  0  0  0  0  0  0  0  0  0
    4.3461   -1.7270    0.7475 C   0  0  0  0  0  0  0  0  0  0  0  0
    5.7129   -1.5810    0.9904 C   0  0  0  0  0  0  0  0  0  0  0  0
    6.5372   -1.0106    0.0210 C   0  0  0  0  0  0  0  0  0  0  0  0
    5.9977   -0.5847   -1.1923 C   0  0  0  0  0  0  0  0  0  0  0  0
    4.6313   -0.7293   -1.4386 C   0  0  0  0  0  0  0  0  0  0  0  0
    1.9799   -2.6014   -1.3149 C   0  0  0  0  0  0  0  0  0  0  0  0
    0.5863   -2.9192   -1.6449 C   0  0  0  0  0  0  0  0  0  0  0  0
    0.2921   -3.9807   -2.1816 O   0  0  0  0  0  0  0  0  0  0  0  0
   -0.3658   -1.9692   -1.3211 O   0  0  0  0  0  0  0  0  0  0  0  0
   -0.0260   -0.7488   -0.6945 C   0  0  0  0  0  0  0  0  0  0  0  0
   -1.0729    0.1445   -0.4043 C   0  0  0  0  0  0  0  0  0  0  0  0
   -2.4953   -0.1848   -0.8194 C   0  0  0  0  0  0  0  0  0  0  0  0
   -3.5218    0.3460    0.1085 N   0  0  0  0  0  0  0  0  0  0  0  0
   -3.5824   -0.4383    1.3714 C   0  0  0  0  0  0  0  0  0  0  0  0
   -4.7147   -1.4768    1.4030 C   0  0  0  0  0  0  0  0  0  0  0  0
   -6.0141   -0.8947    1.2360 O   0  0  0  0  0  0  0  0  0  0  0  0
   -5.9997    0.3080    0.4557 C   0  0  0  0  0  0  0  0  0  0  0  0
   -4.8482    0.3372   -0.5590 C   0  0  0  0  0  0  0  0  0  0  0  0
   -0.7241    1.3703    0.1871 C   0  0  0  0  0  0  0  0  0  0  0  0
   -1.6842    2.3034    0.4818 O   0  0  0  0  0  0  0  0  0  0  0  0
    1.9612    3.8314   -0.6299 H   0  0  0  0  0  0  0  0  0  0  0  0
    0.2509    4.2681   -0.4976 H   0  0  0  0  0  0  0  0  0  0  0  0
    1.4456    5.0429    0.5563 H   0  0  0  0  0  0  0  0  0  0  0  0
    0.2083    3.3186    1.8464 H   0  0  0  0  0  0  0  0  0  0  0  0
    1.8986    2.9016    1.7068 H   0  0  0  0  0  0  0  0  0  0  0  0
    2.6458    1.0129    0.4384 H   0  0  0  0  0  0  0  0  0  0  0  0
    3.7130   -2.1707    1.5126 H   0  0  0  0  0  0  0  0  0  0  0  0
    6.1349   -1.9116    1.9361 H   0  0  0  0  0  0  0  0  0  0  0  0
    7.6016   -0.8973    0.2115 H   0  0  0  0  0  0  0  0  0  0  0  0
    6.6414   -0.1393   -1.9466 H   0  0  0  0  0  0  0  0  0  0  0  0
    4.2218   -0.3902   -2.3875 H   0  0  0  0  0  0  0  0  0  0  0  0
    2.6933   -3.3730   -1.5859 H   0  0  0  0  0  0  0  0  0  0  0  0
   -2.6391   -1.2656   -0.9375 H   0  0  0  0  0  0  0  0  0  0  0  0
   -2.6300    0.2700   -1.8101 H   0  0  0  0  0  0  0  0  0  0  0  0
   -2.6261   -0.9221    1.6003 H   0  0  0  0  0  0  0  0  0  0  0  0
   -3.7598    0.2847    2.1777 H   0  0  0  0  0  0  0  0  0  0  0  0
   -4.7143   -2.0032    2.3629 H   0  0  0  0  0  0  0  0  0  0  0  0
   -4.5733   -2.2303    0.6195 H   0  0  0  0  0  0  0  0  0  0  0  0
   -5.9410    1.1624    1.1403 H   0  0  0  0  0  0  0  0  0  0  0  0
   -6.9613    0.3728   -0.0633 H   0  0  0  0  0  0  0  0  0  0  0  0
   -4.9321    1.2305   -1.1874 H   0  0  0  0  0  0  0  0  0  0  0  0
   -4.9450   -0.5431   -1.2086 H   0  0  0  0  0  0  0  0  0  0  0  0
   -2.5531    1.8513    0.4029 H   0  0  0  0  0  0  0  0  0  0  0  0
  1  2  1  0
  2  3  1  0
  3  4  2  0
  4  5  1  0
  5  6  1  0
  6  7  1  0
  7  8  2  0
  8  9  1  0
  9 10  2  0
 10 11  1  0
 11 12  2  0
  6 13  2  0
 13 14  1  0
 14 15  2  0
 14 16  1  0
 16 17  1  0
 17 18  1  0
 18 19  1  0
 19 20  1  0
 20 21  1  0
 21 22  1  0
 22 23  1  0
 23 24  1  0
 24 25  1  0
 18 26  2  0
 26 27  1  0
 26  3  1  0
 17  5  2  0
 25 20  1  0
 12  7  1  0
  1 28  1  0
  1 29  1  0
  1 30  1  0
  2 31  1  0
  2 32  1  0
  4 33  1  0
  8 34  1  0
  9 35  1  0
 10 36  1  0
 11 37  1  0
 12 38  1  0
 13 39  1  0
 19 40  1  0
 19 41  1  0
 21 42  1  0
 21 43  1  0
 22 44  1  0
 22 45  1  0
 24 46  1  0
 24 47  1  0
 25 48  1  0
 25 49  1  0
 27 50  1  0
M  END
$$$$
