
     RDKit          3D

 32 33  0  0  0  0  0  0  0  0999 V2000
   -6.4354    1.0627   -0.2720 C   0  0  0  0  0  0  0  0  0  0  0  0
   -5.6819   -0.1117   -0.8652 C   0  0  0  0  0  0  0  0  0  0  0  0
   -4.3048    0.0052   -0.4881 O   0  0  0  0  0  0  0  0  0  0  0  0
   -3.5134   -0.9911   -0.9586 C   0  0  0  0  0  0  0  0  0  0  0  0
   -3.8821   -1.9308   -1.6455 O   0  0  0  0  0  0  0  0  0  0  0  0
   -2.1041   -0.7932   -0.5225 C   0  0  0  0  0  0  0  0  0  0  0  0
   -1.1489   -1.7351   -0.9250 C   0  0  0  0  0  0  0  0  0  0  0  0
    0.1880   -1.5944   -0.5429 C   0  0  0  0  0  0  0  0  0  0  0  0
    0.5903   -0.5120    0.2524 C   0  0  0  0  0  0  0  0  0  0  0  0
    2.0376   -0.3506    0.6524 C   0  0  0  0  0  0  0  0  0  0  0  0
    2.9528    0.6306   -0.5721 S   0  0  0  0  0  0  0  0  0  0  0  0
    4.5389    0.6453    0.1606 C   0  0  0  0  0  0  0  0  0  0  0  0
    4.8111    0.0265    1.2879 N   0  0  0  0  0  0  0  0  0  0  0  0
    6.1314    0.1907    1.6595 N   0  0  0  0  0  0  0  0  0  0  0  0
    6.8063    0.9233    0.8022 C   0  0  0  0  0  0  0  0  0  0  0  0
    8.1123    1.2304    0.9216 N   0  0  0  0  0  0  0  0  0  0  0  0
    5.8732    1.4624   -0.5357 S   0  0  0  0  0  0  0  0  0  0  0  0
   -0.3677    0.4332    0.6478 C   0  0  0  0  0  0  0  0  0  0  0  0
   -1.7056    0.2936    0.2660 C   0  0  0  0  0  0  0  0  0  0  0  0
   -6.0212    2.0093   -0.6349 H   0  0  0  0  0  0  0  0  0  0  0  0
   -7.4963    1.0180   -0.5333 H   0  0  0  0  0  0  0  0  0  0  0  0
   -6.3396    1.0708    0.8188 H   0  0  0  0  0  0  0  0  0  0  0  0
   -6.0936   -1.0499   -0.4765 H   0  0  0  0  0  0  0  0  0  0  0  0
   -5.7693   -0.0938   -1.9574 H   0  0  0  0  0  0  0  0  0  0  0  0
   -1.4414   -2.5832   -1.5419 H   0  0  0  0  0  0  0  0  0  0  0  0
    0.9138   -2.3350   -0.8737 H   0  0  0  0  0  0  0  0  0  0  0  0
    2.0920    0.1352    1.6338 H   0  0  0  0  0  0  0  0  0  0  0  0
    2.4996   -1.3394    0.7564 H   0  0  0  0  0  0  0  0  0  0  0  0
    8.6395    0.6496    1.5657 H   0  0  0  0  0  0  0  0  0  0  0  0
    8.6195    1.4630    0.0759 H   0  0  0  0  0  0  0  0  0  0  0  0
   -0.0768    1.2888    1.2549 H   0  0  0  0  0  0  0  0  0  0  0  0
   -2.4240    1.0429    0.5895 H   0  0  0  0  0  0  0  0  0  0  0  0
  1  2  1  0
  2  3  1  0
  3  4  1  0
  4  5  2  0
  4  6  1  0
  6  7  2  0
  7  8  1  0
  8  9  2  0
  9 10  1  0
 10 11  1  0
 11 12  1  0
 12 13  2  0
 13 14  1  0
 14 15  2  0
 15 16  1  0
 15 17  1  0
  9 18  1  0
 18 19  2  0
 19  6  1  0
 17 12  1  0
  1 20  1  0
  1 21  1  0
  1 22  1  0
  2 23  1  0
  2 24  1  0
  7 25  1  0
  8 26  1  0
 10 27  1  0
 10 28  1  0
 16 29  1  0
 16 30  1  0
 18 31  1  0
 19 32  1  0
M  END
$$$$
