
     RDKit          3D

 30 31  0  0  0  0  0  0  0  0999 V2000
    2.2939   -0.8483    4.0421 N   0  0  0  0  0  0  0  0  0  0  0  0
    2.6630   -1.1863    2.9944 C   0  0  0  0  0  0  0  0  0  0  0  0
    3.1569   -1.6569    1.6946 C   0  0  0  0  0  0  0  0  0  0  0  0
    3.2189   -0.5426    0.6577 C   0  0  0  0  0  0  0  0  0  0  0  0
    1.9331    0.0204    0.2932 N   0  0  0  0  0  0  0  0  0  0  0  0
    1.6865    1.3172   -0.0407 C   0  0  0  0  0  0  0  0  0  0  0  0
    0.3450    1.3952   -0.3581 C   0  0  0  0  0  0  0  0  0  0  0  0
   -0.4327    2.5669   -0.7101 C   0  0  0  0  0  0  0  0  0  0  0  0
   -0.0143    3.6666   -1.2696 N   0  0  0  0  0  0  0  0  0  0  0  0
    1.3442    3.6540   -1.5999 O   0  0  0  0  0  0  0  0  0  0  0  0
   -0.1307    0.0534   -0.1947 C   0  0  0  0  0  0  0  0  0  0  0  0
   -1.4812   -0.4599   -0.4083 C   0  0  0  0  0  0  0  0  0  0  0  0
   -2.1715   -0.1847   -1.5981 C   0  0  0  0  0  0  0  0  0  0  0  0
   -3.4717   -0.6638   -1.7851 C   0  0  0  0  0  0  0  0  0  0  0  0
   -4.0822   -1.4220   -0.7852 C   0  0  0  0  0  0  0  0  0  0  0  0
   -5.6859   -2.0035   -1.0116 Cl  0  0  0  0  0  0  0  0  0  0  0  0
   -3.3999   -1.7191    0.3927 C   0  0  0  0  0  0  0  0  0  0  0  0
   -2.0988   -1.2423    0.5780 C   0  0  0  0  0  0  0  0  0  0  0  0
    0.8545   -0.7703    0.2036 N   0  0  0  0  0  0  0  0  0  0  0  0
    4.1667   -2.0640    1.8278 H   0  0  0  0  0  0  0  0  0  0  0  0
    2.5328   -2.4875    1.3459 H   0  0  0  0  0  0  0  0  0  0  0  0
    3.6459   -0.9359   -0.2723 H   0  0  0  0  0  0  0  0  0  0  0  0
    3.8575    0.2810    1.0018 H   0  0  0  0  0  0  0  0  0  0  0  0
    2.4607    2.0711   -0.0118 H   0  0  0  0  0  0  0  0  0  0  0  0
   -1.5120    2.5129   -0.4861 H   0  0  0  0  0  0  0  0  0  0  0  0
    1.4569    4.5069   -2.0590 H   0  0  0  0  0  0  0  0  0  0  0  0
   -1.6988    0.3841   -2.3966 H   0  0  0  0  0  0  0  0  0  0  0  0
   -3.9980   -0.4446   -2.7099 H   0  0  0  0  0  0  0  0  0  0  0  0
   -3.8702   -2.3173    1.1684 H   0  0  0  0  0  0  0  0  0  0  0  0
   -1.5686   -1.4809    1.4966 H   0  0  0  0  0  0  0  0  0  0  0  0
  1  2  3  0
  2  3  1  0
  3  4  1  0
  4  5  1  0
  5  6  1  0
  6  7  2  0
  7  8  1  0
  8  9  2  3
  9 10  1  0
  7 11  1  0
 11 12  1  0
 12 13  2  0
 13 14  1  0
 14 15  2  0
 15 16  1  0
 15 17  1  0
 17 18  2  0
 11 19  2  0
 19  5  1  0
 18 12  1  0
  3 20  1  0
  3 21  1  0
  4 22  1  0
  4 23  1  0
  6 24  1  0
  8 25  1  0
 10 26  1  0
 13 27  1  0
 14 28  1  0
 17 29  1  0
 18 30  1  0
M  END
$$$$
