
     RDKit          3D

 59 63  0  0  0  0  0  0  0  0999 V2000
   -3.2602   -4.9269   -0.3367 C   0  0  0  0  0  0  0  0  0  0  0  0
   -2.9592   -3.6411    0.3704 C   0  0  0  0  0  0  0  0  0  0  0  0
   -2.0991   -3.6358    1.4734 C   0  0  0  0  0  0  0  0  0  0  0  0
   -1.8154   -2.4450    2.1459 C   0  0  0  0  0  0  0  0  0  0  0  0
   -2.3852   -1.2385    1.7308 C   0  0  0  0  0  0  0  0  0  0  0  0
   -2.0578    0.0524    2.4371 C   0  0  0  0  0  0  0  0  0  0  0  0
   -1.1659    0.8591    1.6363 N   0  0  0  0  0  0  0  0  0  0  0  0
   -1.6204    1.9168    0.8878 C   0  0  0  0  0  0  0  0  0  0  0  0
   -2.7783    2.3183    0.9648 O   0  0  0  0  0  0  0  0  0  0  0  0
   -0.6510    2.5504    0.0278 C   0  0  0  0  0  0  0  0  0  0  0  0
   -0.5792    3.8977   -0.2824 C   0  0  0  0  0  0  0  0  0  0  0  0
    0.5003    4.0560   -1.1877 C   0  0  0  0  0  0  0  0  0  0  0  0
    0.9955    5.2903   -1.8068 C   0  0  0  0  0  0  0  0  0  0  0  0
    0.2496    6.4780   -1.7588 C   0  0  0  0  0  0  0  0  0  0  0  0
    0.7311    7.6498   -2.3522 C   0  0  0  0  0  0  0  0  0  0  0  0
    1.9646    7.6507   -2.9985 C   0  0  0  0  0  0  0  0  0  0  0  0
    2.7171    6.4805   -3.0557 C   0  0  0  0  0  0  0  0  0  0  0  0
    2.2339    5.3081   -2.4663 C   0  0  0  0  0  0  0  0  0  0  0  0
    1.0604    2.8626   -1.4428 N   0  0  0  0  0  0  0  0  0  0  0  0
    0.3296    1.9765   -0.7368 N   0  0  0  0  0  0  0  0  0  0  0  0
    0.6089    0.5659   -0.9547 C   0  0  0  0  0  0  0  0  0  0  0  0
    1.9118    0.1566   -0.2734 C   0  0  0  0  0  0  0  0  0  0  0  0
    2.3053   -1.2738   -0.5698 C   0  0  0  0  0  0  0  0  0  0  0  0
    1.8200   -1.9194    0.6823 C   0  0  0  0  0  0  0  0  0  0  0  0
    1.7669   -3.3857    0.8323 C   0  0  0  0  0  0  0  0  0  0  0  0
    2.0019   -4.2600   -0.2270 C   0  0  0  0  0  0  0  0  0  0  0  0
    1.9340   -5.6363   -0.0076 C   0  0  0  0  0  0  0  0  0  0  0  0
    1.6371   -6.0894    1.2688 C   0  0  0  0  0  0  0  0  0  0  0  0
    1.4113   -5.2715    2.3170 N   0  0  0  0  0  0  0  0  0  0  0  0
    1.4895   -3.9385    2.0774 C   0  0  0  0  0  0  0  0  0  0  0  0
    1.4957   -1.0940    1.6284 N   0  0  0  0  0  0  0  0  0  0  0  0
    1.7393    0.2112    1.1529 O   0  0  0  0  0  0  0  0  0  0  0  0
   -3.2481   -1.2489    0.6307 C   0  0  0  0  0  0  0  0  0  0  0  0
   -3.5329   -2.4381   -0.0454 C   0  0  0  0  0  0  0  0  0  0  0  0
   -2.3362   -5.3758   -0.7140 H   0  0  0  0  0  0  0  0  0  0  0  0
   -3.7488   -5.6268    0.3491 H   0  0  0  0  0  0  0  0  0  0  0  0
   -3.9273   -4.7709   -1.1891 H   0  0  0  0  0  0  0  0  0  0  0  0
   -1.6448   -4.5598    1.8188 H   0  0  0  0  0  0  0  0  0  0  0  0
   -1.1410   -2.4672    3.0006 H   0  0  0  0  0  0  0  0  0  0  0  0
   -2.9803    0.5935    2.6702 H   0  0  0  0  0  0  0  0  0  0  0  0
   -1.5483   -0.1434    3.3870 H   0  0  0  0  0  0  0  0  0  0  0  0
   -0.1849    0.6000    1.6447 H   0  0  0  0  0  0  0  0  0  0  0  0
   -1.2344    4.6610    0.1161 H   0  0  0  0  0  0  0  0  0  0  0  0
   -0.7193    6.5104   -1.2692 H   0  0  0  0  0  0  0  0  0  0  0  0
    0.1405    8.5620   -2.3105 H   0  0  0  0  0  0  0  0  0  0  0  0
    2.3377    8.5626   -3.4584 H   0  0  0  0  0  0  0  0  0  0  0  0
    3.6813    6.4755   -3.5570 H   0  0  0  0  0  0  0  0  0  0  0  0
    2.8362    4.4038   -2.5221 H   0  0  0  0  0  0  0  0  0  0  0  0
   -0.2477   -0.0163   -0.6049 H   0  0  0  0  0  0  0  0  0  0  0  0
    0.6771    0.4250   -2.0404 H   0  0  0  0  0  0  0  0  0  0  0  0
    2.7285    0.8358   -0.5495 H   0  0  0  0  0  0  0  0  0  0  0  0
    3.3935   -1.3871   -0.6225 H   0  0  0  0  0  0  0  0  0  0  0  0
    1.8469   -1.6691   -1.4762 H   0  0  0  0  0  0  0  0  0  0  0  0
    2.2370   -3.9046   -1.2258 H   0  0  0  0  0  0  0  0  0  0  0  0
    2.1119   -6.3408   -0.8151 H   0  0  0  0  0  0  0  0  0  0  0  0
    1.5739   -7.1525    1.4858 H   0  0  0  0  0  0  0  0  0  0  0  0
    1.3182   -3.3141    2.9501 H   0  0  0  0  0  0  0  0  0  0  0  0
   -3.7090   -0.3237    0.2953 H   0  0  0  0  0  0  0  0  0  0  0  0
   -4.2117   -2.4155   -0.8978 H   0  0  0  0  0  0  0  0  0  0  0  0
  1  2  1  0
  2  3  2  0
  3  4  1  0
  4  5  2  0
  5  6  1  0
  6  7  1  0
  7  8  1  0
  8  9  2  0
  8 10  1  0
 10 11  2  0
 11 12  1  0
 12 13  1  0
 13 14  2  0
 14 15  1  0
 15 16  2  0
 16 17  1  0
 17 18  2  0
 12 19  2  0
 19 20  1  0
 20 21  1  0
 21 22  1  0
 22 23  1  0
 23 24  1  0
 24 25  1  0
 25 26  2  0
 26 27  1  0
 27 28  2  0
 28 29  1  0
 29 30  2  0
 24 31  2  0
 31 32  1  0
  5 33  1  0
 33 34  2  0
 34  2  1  0
 20 10  1  0
 32 22  1  0
 18 13  1  0
 30 25  1  0
  1 35  1  0
  1 36  1  0
  1 37  1  0
  3 38  1  0
  4 39  1  0
  6 40  1  0
  6 41  1  0
  7 42  1  0
 11 43  1  0
 14 44  1  0
 15 45  1  0
 16 46  1  0
 17 47  1  0
 18 48  1  0
 21 49  1  0
 21 50  1  0
 22 51  1  0
 23 52  1  0
 23 53  1  0
 26 54  1  0
 27 55  1  0
 28 56  1  0
 30 57  1  0
 33 58  1  0
 34 59  1  0
M  END
$$$$
