
     RDKit          3D

 49 51  0  0  0  0  0  0  0  0999 V2000
    6.3112    1.5730   -2.5025 C   0  0  0  0  0  0  0  0  0  0  0  0
    6.1416    1.5369   -1.0934 O   0  0  0  0  0  0  0  0  0  0  0  0
    4.9538    1.0504   -0.6047 C   0  0  0  0  0  0  0  0  0  0  0  0
    3.8888    0.6177   -1.4023 C   0  0  0  0  0  0  0  0  0  0  0  0
    2.7082    0.1461   -0.8145 C   0  0  0  0  0  0  0  0  0  0  0  0
    2.5891    0.0847    0.5786 C   0  0  0  0  0  0  0  0  0  0  0  0
    3.6619    0.5068    1.3783 C   0  0  0  0  0  0  0  0  0  0  0  0
    4.8381    0.9979    0.7988 C   0  0  0  0  0  0  0  0  0  0  0  0
    5.9282    1.4368    1.5098 O   0  0  0  0  0  0  0  0  0  0  0  0
    5.8437    1.4197    2.9272 C   0  0  0  0  0  0  0  0  0  0  0  0
    1.3541   -0.5101    1.2152 C   0  0  0  0  0  0  0  0  0  0  0  0
    0.1168   -0.4325    0.4126 N   0  0  0  0  0  0  0  0  0  0  0  0
   -1.1283   -0.8046    0.9739 C   0  0  0  0  0  0  0  0  0  0  0  0
   -1.2694   -1.6594    2.4187 S   0  0  0  0  0  0  0  0  0  0  0  0
   -2.2031   -0.3223    0.2364 N   0  0  0  0  0  0  0  0  0  0  0  0
   -3.5502   -0.7554    0.1751 C   0  0  0  0  0  0  0  0  0  0  0  0
   -3.9069   -2.0885    0.4042 C   0  0  0  0  0  0  0  0  0  0  0  0
   -5.2351   -2.5096    0.2923 C   0  0  0  0  0  0  0  0  0  0  0  0
   -6.2332   -1.6103   -0.0817 C   0  0  0  0  0  0  0  0  0  0  0  0
   -7.6639   -2.0514   -0.1679 C   0  0  0  0  0  0  0  0  0  0  0  0
   -5.8831   -0.2784   -0.3264 C   0  0  0  0  0  0  0  0  0  0  0  0
   -4.5499    0.1604   -0.2145 C   0  0  0  0  0  0  0  0  0  0  0  0
   -4.2489    1.6072   -0.5005 C   0  0  0  0  0  0  0  0  0  0  0  0
    0.2392    0.0564   -0.9721 C   0  0  0  0  0  0  0  0  0  0  0  0
    1.5535   -0.3346   -1.6455 C   0  0  0  0  0  0  0  0  0  0  0  0
    6.2587    0.5678   -2.9335 H   0  0  0  0  0  0  0  0  0  0  0  0
    5.5836    2.2440   -2.9707 H   0  0  0  0  0  0  0  0  0  0  0  0
    7.3095    1.9706   -2.7092 H   0  0  0  0  0  0  0  0  0  0  0  0
    3.9526    0.6404   -2.4850 H   0  0  0  0  0  0  0  0  0  0  0  0
    3.5569    0.4349    2.4563 H   0  0  0  0  0  0  0  0  0  0  0  0
    5.7298    0.3977    3.3034 H   0  0  0  0  0  0  0  0  0  0  0  0
    5.0351    2.0663    3.2836 H   0  0  0  0  0  0  0  0  0  0  0  0
    6.7839    1.8157    3.3231 H   0  0  0  0  0  0  0  0  0  0  0  0
    1.5556   -1.5687    1.4194 H   0  0  0  0  0  0  0  0  0  0  0  0
    1.1621    0.0006    2.1665 H   0  0  0  0  0  0  0  0  0  0  0  0
   -2.0331    0.6016   -0.1325 H   0  0  0  0  0  0  0  0  0  0  0  0
   -3.1597   -2.8391    0.6422 H   0  0  0  0  0  0  0  0  0  0  0  0
   -5.4770   -3.5513    0.4910 H   0  0  0  0  0  0  0  0  0  0  0  0
   -7.7317   -3.1092   -0.4431 H   0  0  0  0  0  0  0  0  0  0  0  0
   -8.1593   -1.9048    0.7968 H   0  0  0  0  0  0  0  0  0  0  0  0
   -8.2022   -1.4824   -0.9331 H   0  0  0  0  0  0  0  0  0  0  0  0
   -6.6615    0.4293   -0.6074 H   0  0  0  0  0  0  0  0  0  0  0  0
   -3.7665    2.0745    0.3641 H   0  0  0  0  0  0  0  0  0  0  0  0
   -5.1605    2.1769   -0.7106 H   0  0  0  0  0  0  0  0  0  0  0  0
   -3.5977    1.6926   -1.3764 H   0  0  0  0  0  0  0  0  0  0  0  0
   -0.5873   -0.3260   -1.5804 H   0  0  0  0  0  0  0  0  0  0  0  0
    0.1429    1.1489   -0.9281 H   0  0  0  0  0  0  0  0  0  0  0  0
    1.5876    0.1065   -2.6481 H   0  0  0  0  0  0  0  0  0  0  0  0
    1.6224   -1.4238   -1.7513 H   0  0  0  0  0  0  0  0  0  0  0  0
  1  2  1  0
  2  3  1  0
  3  4  2  0
  4  5  1  0
  5  6  2  0
  6  7  1  0
  7  8  2  0
  8  9  1  0
  9 10  1  0
  6 11  1  0
 11 12  1  0
 12 13  1  0
 13 14  2  0
 13 15  1  0
 15 16  1  0
 16 17  2  0
 17 18  1  0
 18 19  2  0
 19 20  1  0
 19 21  1  0
 21 22  2  0
 22 23  1  0
 12 24  1  0
 24 25  1  0
  8  3  1  0
 22 16  1  0
 25  5  1  0
  1 26  1  0
  1 27  1  0
  1 28  1  0
  4 29  1  0
  7 30  1  0
 10 31  1  0
 10 32  1  0
 10 33  1  0
 11 34  1  0
 11 35  1  0
 15 36  1  0
 17 37  1  0
 18 38  1  0
 20 39  1  0
 20 40  1  0
 20 41  1  0
 21 42  1  0
 23 43  1  0
 23 44  1  0
 23 45  1  0
 24 46  1  0
 24 47  1  0
 25 48  1  0
 25 49  1  0
M  END
$$$$
