
     RDKit          3D

 36 37  0  0  0  0  0  0  0  0999 V2000
    0.4856   -0.8592    1.8837 O   0  0  0  0  0  0  0  0  0  0  0  0
    0.4982   -1.0171    0.6643 C   0  0  0  0  0  0  0  0  0  0  0  0
   -0.2402   -2.1763   -0.0150 C   0  0  0  0  0  0  0  0  0  0  0  0
   -1.6305   -1.8799   -0.1515 O   0  0  0  0  0  0  0  0  0  0  0  0
   -1.9032   -0.9558   -1.1024 C   0  0  0  0  0  0  0  0  0  0  0  0
   -1.1221   -0.4542   -1.8976 O   0  0  0  0  0  0  0  0  0  0  0  0
   -3.3263   -0.6230   -1.0077 C   0  0  0  0  0  0  0  0  0  0  0  0
   -3.7356    0.4452   -0.2062 C   0  0  0  0  0  0  0  0  0  0  0  0
   -2.6102    1.4120    0.6823 Cl  0  0  0  0  0  0  0  0  0  0  0  0
   -5.1005    0.7434   -0.0865 C   0  0  0  0  0  0  0  0  0  0  0  0
   -6.0492   -0.0196   -0.7676 C   0  0  0  0  0  0  0  0  0  0  0  0
   -5.6346   -1.0771   -1.5787 C   0  0  0  0  0  0  0  0  0  0  0  0
   -4.2743   -1.3788   -1.7020 C   0  0  0  0  0  0  0  0  0  0  0  0
   -3.8305   -2.7060   -2.7126 Cl  0  0  0  0  0  0  0  0  0  0  0  0
    1.1361   -0.1650   -0.2218 N   0  0  0  0  0  0  0  0  0  0  0  0
    1.7079    1.1027    0.2085 C   0  0  0  0  0  0  0  0  0  0  0  0
    2.7402    1.0342    1.3499 C   0  0  0  0  0  0  0  0  0  0  0  0
    3.8242   -0.0256    1.1793 C   0  0  0  0  0  0  0  0  0  0  0  0
    4.9010    0.7084    0.4201 C   0  0  0  0  0  0  0  0  0  0  0  0
    4.8083    2.0938    1.0121 C   0  0  0  0  0  0  0  0  0  0  0  0
    3.4372    2.3041    1.3886 O   0  0  0  0  0  0  0  0  0  0  0  0
    0.2029   -2.4059   -0.9923 H   0  0  0  0  0  0  0  0  0  0  0  0
   -0.1325   -3.0743    0.6034 H   0  0  0  0  0  0  0  0  0  0  0  0
   -5.4331    1.5598    0.5510 H   0  0  0  0  0  0  0  0  0  0  0  0
   -7.1152    0.2090   -0.6649 H   0  0  0  0  0  0  0  0  0  0  0  0
   -6.3845   -1.6658   -2.1087 H   0  0  0  0  0  0  0  0  0  0  0  0
    0.7406   -0.1598   -1.1616 H   0  0  0  0  0  0  0  0  0  0  0  0
    2.1629    1.5712   -0.6794 H   0  0  0  0  0  0  0  0  0  0  0  0
    0.8650    1.7572    0.5069 H   0  0  0  0  0  0  0  0  0  0  0  0
    2.2212    0.9033    2.3083 H   0  0  0  0  0  0  0  0  0  0  0  0
    3.4993   -0.9443    0.6866 H   0  0  0  0  0  0  0  0  0  0  0  0
    4.2065   -0.3070    2.1672 H   0  0  0  0  0  0  0  0  0  0  0  0
    4.6530    0.7378   -0.6464 H   0  0  0  0  0  0  0  0  0  0  0  0
    5.8953    0.2640    0.5277 H   0  0  0  0  0  0  0  0  0  0  0  0
    5.4199    2.1804    1.9156 H   0  0  0  0  0  0  0  0  0  0  0  0
    5.1172    2.8681    0.3040 H   0  0  0  0  0  0  0  0  0  0  0  0
  1  2  2  0
  2  3  1  0
  3  4  1  0
  4  5  1  0
  5  6  2  0
  5  7  1  0
  7  8  2  0
  8  9  1  0
  8 10  1  0
 10 11  2  0
 11 12  1  0
 12 13  2  0
 13 14  1  0
  2 15  1  0
 15 16  1  0
 16 17  1  0
 17 18  1  0
 18 19  1  0
 19 20  1  0
 20 21  1  0
 13  7  1  0
 21 17  1  0
  3 22  1  0
  3 23  1  0
 10 24  1  0
 11 25  1  0
 12 26  1  0
 15 27  1  0
 16 28  1  0
 16 29  1  0
 17 30  1  0
 18 31  1  0
 18 32  1  0
 19 33  1  0
 19 34  1  0
 20 35  1  0
 20 36  1  0
M  END
$$$$
