
     RDKit          3D

 66 70  0  0  0  0  0  0  0  0999 V2000
    2.3392    0.9501    0.8548 C   0  0  0  0  0  0  0  0  0  0  0  0
    2.7546    0.5922   -0.5255 C   0  0  0  0  0  0  0  0  0  0  0  0
    2.1854    0.9899   -1.7236 C   0  0  0  0  0  0  0  0  0  0  0  0
    1.0107    1.8961   -1.9832 C   0  0  0  0  0  0  0  0  0  0  0  0
   -0.2899    1.1219   -2.2172 C   0  0  0  0  0  0  0  0  0  0  0  0
   -0.6782    0.3284   -1.0801 O   0  0  0  0  0  0  0  0  0  0  0  0
   -1.2895    1.0112   -0.0712 C   0  0  0  0  0  0  0  0  0  0  0  0
   -1.3381    2.2295    0.0104 O   0  0  0  0  0  0  0  0  0  0  0  0
   -1.8758    0.0572    0.9419 C   0  0  0  0  0  0  0  0  0  0  0  0
   -3.3809   -0.2193    0.7581 C   0  0  0  0  0  0  0  0  0  0  0  0
   -4.2239    1.0684    0.9333 C   0  0  0  0  0  0  0  0  0  0  0  0
   -5.7250    0.7582    0.8031 C   0  0  0  0  0  0  0  0  0  0  0  0
   -6.1328   -0.2566    1.8811 C   0  0  0  0  0  0  0  0  0  0  0  0
   -5.3283   -1.5532    1.7097 C   0  0  0  0  0  0  0  0  0  0  0  0
   -5.6038   -2.1464    0.3192 C   0  0  0  0  0  0  0  0  0  0  0  0
   -5.1964   -1.1438   -0.7834 C   0  0  0  0  0  0  0  0  0  0  0  0
   -5.4787   -1.7361   -2.1674 C   0  0  0  0  0  0  0  0  0  0  0  0
   -6.0006    0.1620   -0.5873 C   0  0  0  0  0  0  0  0  0  0  0  0
   -3.6888   -0.8250   -0.6353 C   0  0  0  0  0  0  0  0  0  0  0  0
   -3.8297   -1.2400    1.8382 C   0  0  0  0  0  0  0  0  0  0  0  0
    3.0395    0.2922   -3.0425 S   0  0  0  0  0  0  0  0  0  0  0  0
    4.1161   -0.5158   -1.9948 C   0  0  0  0  0  0  0  0  0  0  0  0
    3.8497   -0.2470   -0.7260 N   0  0  0  0  0  4  0  0  0  0  0  0
    4.6586   -0.8511    0.3434 C   0  0  0  0  0  0  0  0  0  0  0  0
    6.0741   -0.3110    0.3089 C   0  0  0  0  0  0  0  0  0  0  0  0
    6.3294    1.0668    0.4242 C   0  0  0  0  0  0  0  0  0  0  0  0
    7.6409    1.5538    0.4097 C   0  0  0  0  0  0  0  0  0  0  0  0
    8.7119    0.6611    0.2862 C   0  0  0  0  0  0  0  0  0  0  0  0
   10.0905    1.1702    0.2781 N   0  0  0  0  0  4  0  0  0  0  0  0
   10.2521    2.3839    0.4654 O   0  0  0  0  0  0  0  0  0  0  0  0
   10.9994    0.3531    0.0829 O   0  0  0  0  0  1  0  0  0  0  0  0
    8.4751   -0.7139    0.1774 C   0  0  0  0  0  0  0  0  0  0  0  0
    7.1614   -1.1949    0.1920 C   0  0  0  0  0  0  0  0  0  0  0  0
    3.1623    1.4217    1.4007 H   0  0  0  0  0  0  0  0  0  0  0  0
    2.0133    0.0584    1.3995 H   0  0  0  0  0  0  0  0  0  0  0  0
    1.5055    1.6582    0.8590 H   0  0  0  0  0  0  0  0  0  0  0  0
    1.2158    2.5206   -2.8615 H   0  0  0  0  0  0  0  0  0  0  0  0
    0.9014    2.5862   -1.1408 H   0  0  0  0  0  0  0  0  0  0  0  0
   -0.1782    0.4285   -3.0581 H   0  0  0  0  0  0  0  0  0  0  0  0
   -1.1033    1.8081   -2.4845 H   0  0  0  0  0  0  0  0  0  0  0  0
   -1.6759    0.4804    1.9349 H   0  0  0  0  0  0  0  0  0  0  0  0
   -1.3054   -0.8802    0.9051 H   0  0  0  0  0  0  0  0  0  0  0  0
   -3.9503    1.8148    0.1779 H   0  0  0  0  0  0  0  0  0  0  0  0
   -4.0239    1.5210    1.9131 H   0  0  0  0  0  0  0  0  0  0  0  0
   -6.3025    1.6808    0.9293 H   0  0  0  0  0  0  0  0  0  0  0  0
   -7.2066   -0.4690    1.8103 H   0  0  0  0  0  0  0  0  0  0  0  0
   -5.9574    0.1653    2.8783 H   0  0  0  0  0  0  0  0  0  0  0  0
   -5.6216   -2.2739    2.4814 H   0  0  0  0  0  0  0  0  0  0  0  0
   -5.0493   -3.0865    0.2024 H   0  0  0  0  0  0  0  0  0  0  0  0
   -6.6690   -2.3963    0.2304 H   0  0  0  0  0  0  0  0  0  0  0  0
   -5.1912   -1.0387   -2.9619 H   0  0  0  0  0  0  0  0  0  0  0  0
   -6.5440   -1.9617   -2.2907 H   0  0  0  0  0  0  0  0  0  0  0  0
   -4.9199   -2.6663   -2.3208 H   0  0  0  0  0  0  0  0  0  0  0  0
   -5.7335    0.8920   -1.3623 H   0  0  0  0  0  0  0  0  0  0  0  0
   -7.0752   -0.0335   -0.6969 H   0  0  0  0  0  0  0  0  0  0  0  0
   -3.3896   -0.1266   -1.4274 H   0  0  0  0  0  0  0  0  0  0  0  0
   -3.0968   -1.7383   -0.7826 H   0  0  0  0  0  0  0  0  0  0  0  0
   -3.6225   -0.8444    2.8412 H   0  0  0  0  0  0  0  0  0  0  0  0
   -3.2532   -2.1693    1.7430 H   0  0  0  0  0  0  0  0  0  0  0  0
    4.9181   -1.1565   -2.3424 H   0  0  0  0  0  0  0  0  0  0  0  0
    4.2323   -0.6695    1.3331 H   0  0  0  0  0  0  0  0  0  0  0  0
    4.6489   -1.9383    0.1931 H   0  0  0  0  0  0  0  0  0  0  0  0
    5.5201    1.7869    0.5353 H   0  0  0  0  0  0  0  0  0  0  0  0
    7.8133    2.6261    0.5014 H   0  0  0  0  0  0  0  0  0  0  0  0
    9.3010   -1.4198    0.0892 H   0  0  0  0  0  0  0  0  0  0  0  0
    7.0092   -2.2721    0.1221 H   0  0  0  0  0  0  0  0  0  0  0  0
  1  2  1  0
  2  3  2  0
  3  4  1  0
  4  5  1  0
  5  6  1  0
  6  7  1  0
  7  8  2  0
  7  9  1  0
  9 10  1  0
 10 11  1  0
 11 12  1  0
 12 13  1  0
 13 14  1  0
 14 15  1  0
 15 16  1  0
 16 17  1  0
 16 18  1  0
 16 19  1  0
 14 20  1  0
  3 21  1  0
 21 22  1  0
 22 23  2  0
 23 24  1  0
 24 25  1  0
 25 26  2  0
 26 27  1  0
 27 28  2  0
 28 29  1  0
 29 30  2  0
 29 31  1  0
 28 32  1  0
 32 33  2  0
 23  2  1  0
 33 25  1  0
 19 10  1  0
 20 10  1  0
 18 12  1  0
  1 34  1  0
  1 35  1  0
  1 36  1  0
  4 37  1  0
  4 38  1  0
  5 39  1  0
  5 40  1  0
  9 41  1  0
  9 42  1  0
 11 43  1  0
 11 44  1  0
 12 45  1  0
 13 46  1  0
 13 47  1  0
 14 48  1  0
 15 49  1  0
 15 50  1  0
 17 51  1  0
 17 52  1  0
 17 53  1  0
 18 54  1  0
 18 55  1  0
 19 56  1  0
 19 57  1  0
 20 58  1  0
 20 59  1  0
 22 60  1  0
 24 61  1  0
 24 62  1  0
 26 63  1  0
 27 64  1  0
 32 65  1  0
 33 66  1  0
M  CHG  3  23   1  29   1  31  -1
M  END
$$$$
