
     RDKit          3D

 76 78  0  0  0  0  0  0  0  0999 V2000
    6.7899    1.1316    4.2149 C   0  0  0  0  0  0  0  0  0  0  0  0
    6.0912    2.0575    3.2314 C   0  0  0  0  0  0  0  0  0  0  0  0
    5.7981    1.4025    1.8806 C   0  0  0  0  0  0  0  0  0  0  0  0
    4.7968    0.2464    1.9747 C   0  0  0  0  0  0  0  0  0  0  0  0
    4.4283   -0.2652    0.6482 N   0  0  0  0  0  0  0  0  0  0  0  0
    3.2821    0.1896   -0.0003 C   0  0  0  0  0  0  0  0  0  0  0  0
    2.5611    1.2592    0.5230 N   0  0  0  0  0  0  0  0  0  0  0  0
    2.8825   -0.3998   -1.1566 C   0  0  0  0  0  0  0  0  0  0  0  0
    1.7097   -0.0372   -1.8287 N   0  0  0  0  0  0  0  0  0  0  0  0
    1.7841    0.2737   -3.2675 C   0  0  0  0  0  0  0  0  0  0  0  0
    1.5725    1.7723   -3.5732 C   0  0  0  0  0  0  0  0  0  0  0  0
    1.2817    1.9616   -5.0638 C   0  0  0  0  0  0  0  0  0  0  0  0
    2.7937    2.6056   -3.1788 C   0  0  0  0  0  0  0  0  0  0  0  0
    0.4199   -0.1800   -1.2846 C   0  0  0  0  0  0  0  0  0  0  0  0
   -0.5768    0.2280   -1.8927 O   0  0  0  0  0  0  0  0  0  0  0  0
    0.2796   -0.8793    0.0809 C   0  0  0  0  0  0  0  0  0  0  0  0
   -1.0981   -1.2826    0.2585 N   0  0  0  0  0  0  0  0  0  0  0  0
   -1.6186   -2.4472   -0.2017 C   0  0  0  0  0  0  0  0  0  0  0  0
   -1.0279   -3.3463   -0.7752 O   0  0  0  0  0  0  0  0  0  0  0  0
   -2.9627   -2.4687    0.0855 N   0  0  0  0  0  0  0  0  0  0  0  0
   -3.4371   -1.2053    0.6158 C   0  0  0  0  0  0  0  0  0  0  0  0
   -4.1187   -1.3924    1.9759 C   0  0  0  0  0  0  0  0  0  0  0  0
   -5.1628   -0.3021    2.2328 C   0  0  0  0  0  0  0  0  0  0  0  0
   -5.7509   -0.4275    3.6382 C   0  0  0  0  0  0  0  0  0  0  0  0
   -6.2817   -0.3279    1.1741 C   0  0  0  0  0  0  0  0  0  0  0  0
   -5.8053   -0.6509   -0.2683 C   0  0  0  0  0  0  0  0  0  0  0  0
   -6.5328    0.2774   -1.2624 C   0  0  0  0  0  0  0  0  0  0  0  0
   -6.1860   -2.1003   -0.6342 C   0  0  0  0  0  0  0  0  0  0  0  0
   -4.2816   -0.4332   -0.4141 C   0  0  0  0  0  0  0  0  0  0  0  0
   -2.0776   -0.4889    0.7830 C   0  0  0  0  0  0  0  0  0  0  0  0
   -1.9163    0.6165    1.2850 O   0  0  0  0  0  0  0  0  0  0  0  0
    3.7380   -1.4820   -1.7365 C   0  0  0  0  0  0  0  0  0  0  0  0
    3.3815   -2.1715   -2.6874 O   0  0  0  0  0  0  0  0  0  0  0  0
    4.9374   -1.6858   -1.1333 N   0  0  0  0  0  0  0  0  0  0  0  0
    5.2754   -1.2219    0.0999 C   0  0  0  0  0  0  0  0  0  0  0  0
    6.2797   -1.6608    0.6564 O   0  0  0  0  0  0  0  0  0  0  0  0
    7.7085    0.7213    3.7836 H   0  0  0  0  0  0  0  0  0  0  0  0
    6.1443    0.2995    4.5108 H   0  0  0  0  0  0  0  0  0  0  0  0
    7.0579    1.6817    5.1227 H   0  0  0  0  0  0  0  0  0  0  0  0
    6.7304    2.9323    3.0620 H   0  0  0  0  0  0  0  0  0  0  0  0
    5.1601    2.4272    3.6764 H   0  0  0  0  0  0  0  0  0  0  0  0
    5.4079    2.1719    1.2033 H   0  0  0  0  0  0  0  0  0  0  0  0
    6.7343    1.0495    1.4309 H   0  0  0  0  0  0  0  0  0  0  0  0
    3.8976    0.5451    2.5257 H   0  0  0  0  0  0  0  0  0  0  0  0
    5.2367   -0.5762    2.5513 H   0  0  0  0  0  0  0  0  0  0  0  0
    3.1591    1.9545    0.9602 H   0  0  0  0  0  0  0  0  0  0  0  0
    1.9645    1.7071   -0.1739 H   0  0  0  0  0  0  0  0  0  0  0  0
    1.0130   -0.3222   -3.7727 H   0  0  0  0  0  0  0  0  0  0  0  0
    2.7475   -0.0372   -3.6859 H   0  0  0  0  0  0  0  0  0  0  0  0
    0.7102    2.1517   -3.0128 H   0  0  0  0  0  0  0  0  0  0  0  0
    2.1135    1.6039   -5.6800 H   0  0  0  0  0  0  0  0  0  0  0  0
    0.3807    1.4122   -5.3566 H   0  0  0  0  0  0  0  0  0  0  0  0
    1.1169    3.0188   -5.2973 H   0  0  0  0  0  0  0  0  0  0  0  0
    2.6401    3.6604   -3.4313 H   0  0  0  0  0  0  0  0  0  0  0  0
    2.9824    2.5525   -2.1037 H   0  0  0  0  0  0  0  0  0  0  0  0
    3.6947    2.2630   -3.6991 H   0  0  0  0  0  0  0  0  0  0  0  0
    0.5349   -0.1860    0.8833 H   0  0  0  0  0  0  0  0  0  0  0  0
    0.9121   -1.7711    0.1142 H   0  0  0  0  0  0  0  0  0  0  0  0
   -3.5418   -3.2113   -0.2834 H   0  0  0  0  0  0  0  0  0  0  0  0
   -4.6081   -2.3740    2.0268 H   0  0  0  0  0  0  0  0  0  0  0  0
   -3.3727   -1.3903    2.7814 H   0  0  0  0  0  0  0  0  0  0  0  0
   -4.6625    0.6740    2.1768 H   0  0  0  0  0  0  0  0  0  0  0  0
   -4.9653   -0.3428    4.3964 H   0  0  0  0  0  0  0  0  0  0  0  0
   -6.4830    0.3653    3.8244 H   0  0  0  0  0  0  0  0  0  0  0  0
   -6.2512   -1.3920    3.7762 H   0  0  0  0  0  0  0  0  0  0  0  0
   -7.0572   -1.0465    1.4712 H   0  0  0  0  0  0  0  0  0  0  0  0
   -6.7762    0.6526    1.2001 H   0  0  0  0  0  0  0  0  0  0  0  0
   -7.6202    0.1620   -1.1891 H   0  0  0  0  0  0  0  0  0  0  0  0
   -6.2961    1.3296   -1.0683 H   0  0  0  0  0  0  0  0  0  0  0  0
   -6.2416    0.0571   -2.2956 H   0  0  0  0  0  0  0  0  0  0  0  0
   -5.8000   -2.3718   -1.6232 H   0  0  0  0  0  0  0  0  0  0  0  0
   -7.2749   -2.2254   -0.6607 H   0  0  0  0  0  0  0  0  0  0  0  0
   -5.7999   -2.8255    0.0872 H   0  0  0  0  0  0  0  0  0  0  0  0
   -4.0827    0.6430   -0.3076 H   0  0  0  0  0  0  0  0  0  0  0  0
   -3.9618   -0.6852   -1.4349 H   0  0  0  0  0  0  0  0  0  0  0  0
    5.4999   -2.4438   -1.4888 H   0  0  0  0  0  0  0  0  0  0  0  0
  1  2  1  0
  2  3  1  0
  3  4  1  0
  4  5  1  0
  5  6  1  0
  6  7  1  0
  6  8  2  0
  8  9  1  0
  9 10  1  0
 10 11  1  0
 11 12  1  0
 11 13  1  0
  9 14  1  0
 14 15  2  0
 14 16  1  0
 16 17  1  0
 17 18  1  0
 18 19  2  0
 18 20  1  0
 20 21  1  0
 21 22  1  0
 22 23  1  0
 23 24  1  0
 23 25  1  0
 25 26  1  0
 26 27  1  0
 26 28  1  0
 26 29  1  0
 21 30  1  0
 30 31  2  0
  8 32  1  0
 32 33  2  0
 32 34  1  0
 34 35  1  0
 35 36  2  0
 35  5  1  0
 30 17  1  0
 29 21  1  0
  1 37  1  0
  1 38  1  0
  1 39  1  0
  2 40  1  0
  2 41  1  0
  3 42  1  0
  3 43  1  0
  4 44  1  0
  4 45  1  0
  7 46  1  0
  7 47  1  0
 10 48  1  0
 10 49  1  0
 11 50  1  0
 12 51  1  0
 12 52  1  0
 12 53  1  0
 13 54  1  0
 13 55  1  0
 13 56  1  0
 16 57  1  0
 16 58  1  0
 20 59  1  0
 22 60  1  0
 22 61  1  0
 23 62  1  0
 24 63  1  0
 24 64  1  0
 24 65  1  0
 25 66  1  0
 25 67  1  0
 27 68  1  0
 27 69  1  0
 27 70  1  0
 28 71  1  0
 28 72  1  0
 28 73  1  0
 29 74  1  0
 29 75  1  0
 34 76  1  0
M  END
$$$$
