
     RDKit          3D

 43 45  0  0  0  0  0  0  0  0999 V2000
    5.5468   -1.0075   -2.6620 C   0  0  0  0  0  0  0  0  0  0  0  0
    4.9898   -0.6958   -1.2814 C   0  0  0  0  0  0  0  0  0  0  0  0
    4.7039    0.7977   -1.1196 C   0  0  0  0  0  0  0  0  0  0  0  0
    4.2250    1.1760    0.2861 C   0  0  0  0  0  0  0  0  0  0  0  0
    2.9434    0.5840    0.6633 N   0  0  0  0  0  0  0  0  0  0  0  0
    1.7511    1.0651   -0.0178 C   0  0  0  0  0  0  0  0  0  0  0  0
    0.4760    0.5898    0.5884 C   0  0  0  0  0  0  0  0  0  0  0  0
   -0.7637    1.1458    0.2599 C   0  0  0  0  0  0  0  0  0  0  0  0
   -1.9291    0.6016    0.8042 C   0  0  0  0  0  0  0  0  0  0  0  0
   -3.2380    1.2151    0.4833 C   0  0  0  0  0  0  0  0  0  0  0  0
   -3.2763    2.3992    0.1536 O   0  0  0  0  0  0  0  0  0  0  0  0
   -4.5132    0.4695    0.5815 C   0  0  0  0  0  0  0  0  0  0  0  0
   -5.5955    1.1192    1.1854 C   0  0  0  0  0  0  0  0  0  0  0  0
   -6.8152    0.4627    1.2858 C   0  0  0  0  0  0  0  0  0  0  0  0
   -7.8490    1.0772    1.8743 F   0  0  0  0  0  0  0  0  0  0  0  0
   -6.9821   -0.8248    0.7855 C   0  0  0  0  0  0  0  0  0  0  0  0
   -5.9135   -1.4694    0.1607 C   0  0  0  0  0  0  0  0  0  0  0  0
   -4.6831   -0.8175    0.0525 C   0  0  0  0  0  0  0  0  0  0  0  0
   -3.6492   -1.4342   -0.5920 O   0  0  0  0  0  0  0  0  0  0  0  0
   -1.7939   -0.4745    1.6711 C   0  0  0  0  0  0  0  0  0  0  0  0
   -0.6045   -1.0393    1.9989 N   0  0  0  0  0  0  0  0  0  0  0  0
    0.4983   -0.4902    1.4507 C   0  0  0  0  0  0  0  0  0  0  0  0
    1.7134   -1.0498    1.7882 N   0  0  0  0  0  0  0  0  0  0  0  0
    2.9303   -0.5476    1.4536 C   0  0  0  0  0  0  0  0  0  0  0  0
    3.9477   -1.0908    1.8801 O   0  0  0  0  0  0  0  0  0  0  0  0
    5.7420   -2.0801   -2.7584 H   0  0  0  0  0  0  0  0  0  0  0  0
    6.4869   -0.4743   -2.8358 H   0  0  0  0  0  0  0  0  0  0  0  0
    4.8380   -0.7193   -3.4449 H   0  0  0  0  0  0  0  0  0  0  0  0
    5.7098   -1.0223   -0.5223 H   0  0  0  0  0  0  0  0  0  0  0  0
    4.0720   -1.2754   -1.1346 H   0  0  0  0  0  0  0  0  0  0  0  0
    5.6210    1.3622   -1.3296 H   0  0  0  0  0  0  0  0  0  0  0  0
    3.9659    1.1126   -1.8665 H   0  0  0  0  0  0  0  0  0  0  0  0
    4.1126    2.2648    0.3509 H   0  0  0  0  0  0  0  0  0  0  0  0
    4.9919    0.8986    1.0186 H   0  0  0  0  0  0  0  0  0  0  0  0
    1.7776    2.1607   -0.0005 H   0  0  0  0  0  0  0  0  0  0  0  0
    1.7972    0.7246   -1.0582 H   0  0  0  0  0  0  0  0  0  0  0  0
   -0.8263    1.9928   -0.4203 H   0  0  0  0  0  0  0  0  0  0  0  0
   -5.4965    2.1291    1.5738 H   0  0  0  0  0  0  0  0  0  0  0  0
   -7.9483   -1.3124    0.8776 H   0  0  0  0  0  0  0  0  0  0  0  0
   -6.0613   -2.4688   -0.2388 H   0  0  0  0  0  0  0  0  0  0  0  0
   -3.9504   -2.2826   -0.9617 H   0  0  0  0  0  0  0  0  0  0  0  0
   -2.6489   -0.9338    2.1575 H   0  0  0  0  0  0  0  0  0  0  0  0
    1.6976   -1.8379    2.4171 H   0  0  0  0  0  0  0  0  0  0  0  0
  1  2  1  0
  2  3  1  0
  3  4  1  0
  4  5  1  0
  5  6  1  0
  6  7  1  0
  7  8  2  0
  8  9  1  0
  9 10  1  0
 10 11  2  0
 10 12  1  0
 12 13  2  0
 13 14  1  0
 14 15  1  0
 14 16  2  0
 16 17  1  0
 17 18  2  0
 18 19  1  0
  9 20  2  0
 20 21  1  0
 21 22  2  0
 22 23  1  0
 23 24  1  0
 24 25  2  0
 24  5  1  0
 22  7  1  0
 18 12  1  0
  1 26  1  0
  1 27  1  0
  1 28  1  0
  2 29  1  0
  2 30  1  0
  3 31  1  0
  3 32  1  0
  4 33  1  0
  4 34  1  0
  6 35  1  0
  6 36  1  0
  8 37  1  0
 13 38  1  0
 16 39  1  0
 17 40  1  0
 19 41  1  0
 20 42  1  0
 23 43  1  0
M  END
$$$$
