
     RDKit          3D

 38 41  0  0  0  0  0  0  0  0999 V2000
    8.1546    1.6416    0.4395 C   0  0  0  0  0  0  0  0  0  0  0  0
    6.6790    1.7499    0.5484 C   0  0  0  0  0  0  0  0  0  0  0  0
    6.0296    2.7853    1.0368 N   0  0  0  0  0  0  0  0  0  0  0  0
    4.6626    2.5940    1.0090 N   0  0  0  0  0  0  0  0  0  0  0  0
    4.3328    1.4263    0.5025 C   0  0  0  0  0  0  0  0  0  0  0  0
    3.0253    1.0332    0.3829 N   0  0  0  0  0  0  0  0  0  0  0  0
    2.5442   -0.1532   -0.1262 C   0  0  0  0  0  0  0  0  0  0  0  0
    3.2504   -1.0587   -0.5642 O   0  0  0  0  0  0  0  0  0  0  0  0
    1.0818   -0.2742   -0.1147 C   0  0  0  0  0  0  0  0  0  0  0  0
    0.0762    1.0436    0.3179 S   0  0  0  0  0  0  0  0  0  0  0  0
   -1.3421    0.1429    0.0682 C   0  0  0  0  0  0  0  0  0  0  0  0
   -2.5372    0.7219    0.2792 N   0  0  0  0  0  0  0  0  0  0  0  0
   -3.6097   -0.0676    0.0815 C   0  0  0  0  0  0  0  0  0  0  0  0
   -4.8936    0.6203    0.3328 C   0  0  0  0  0  0  0  0  0  0  0  0
   -5.0886    1.9222    0.7732 C   0  0  0  0  0  0  0  0  0  0  0  0
   -6.4623    2.2733    0.9104 C   0  0  0  0  0  0  0  0  0  0  0  0
   -7.2909    1.2309    0.5700 C   0  0  0  0  0  0  0  0  0  0  0  0
   -6.4129   -0.1519    0.0906 S   0  0  0  0  0  0  0  0  0  0  0  0
   -3.5051   -1.3965   -0.3114 C   0  0  0  0  0  0  0  0  0  0  0  0
   -2.2415   -1.9831   -0.5384 C   0  0  0  0  0  0  0  0  0  0  0  0
   -2.1653   -3.4359   -0.9236 C   0  0  0  0  0  0  0  0  0  0  0  0
   -1.7796   -4.2330    0.1086 F   0  0  0  0  0  0  0  0  0  0  0  0
   -3.3584   -3.9395   -1.3512 F   0  0  0  0  0  0  0  0  0  0  0  0
   -1.2889   -3.6802   -1.9397 F   0  0  0  0  0  0  0  0  0  0  0  0
   -1.1008   -1.1624   -0.3395 C   0  0  0  0  0  0  0  0  0  0  0  0
    0.3185   -1.3815   -0.4522 C   0  0  0  0  0  0  0  0  0  0  0  0
    0.8711   -2.5568   -0.8381 N   0  0  0  0  0  0  0  0  0  0  0  0
    5.6598    0.4734    0.0219 S   0  0  0  0  0  0  0  0  0  0  0  0
    8.5280    0.8006    1.0325 H   0  0  0  0  0  0  0  0  0  0  0  0
    8.6340    2.5535    0.8096 H   0  0  0  0  0  0  0  0  0  0  0  0
    8.4598    1.5002   -0.6021 H   0  0  0  0  0  0  0  0  0  0  0  0
    2.3633    1.7195    0.7195 H   0  0  0  0  0  0  0  0  0  0  0  0
   -4.2675    2.5970    0.9888 H   0  0  0  0  0  0  0  0  0  0  0  0
   -6.8203    3.2406    1.2411 H   0  0  0  0  0  0  0  0  0  0  0  0
   -8.3722    1.2146    0.5789 H   0  0  0  0  0  0  0  0  0  0  0  0
   -4.3960   -2.0058   -0.4448 H   0  0  0  0  0  0  0  0  0  0  0  0
    1.8823   -2.5914   -1.0125 H   0  0  0  0  0  0  0  0  0  0  0  0
    0.3796   -3.2134   -1.4445 H   0  0  0  0  0  0  0  0  0  0  0  0
  1  2  1  0
  2  3  2  0
  3  4  1  0
  4  5  2  0
  5  6  1  0
  6  7  1  0
  7  8  2  0
  7  9  1  0
  9 10  1  0
 10 11  1  0
 11 12  2  0
 12 13  1  0
 13 14  1  0
 14 15  2  0
 15 16  1  0
 16 17  2  0
 17 18  1  0
 13 19  2  0
 19 20  1  0
 20 21  1  0
 21 22  1  0
 21 23  1  0
 21 24  1  0
 20 25  2  0
 25 26  1  0
 26 27  1  0
  5 28  1  0
 28  2  1  0
 26  9  2  0
 25 11  1  0
 18 14  1  0
  1 29  1  0
  1 30  1  0
  1 31  1  0
  6 32  1  0
 15 33  1  0
 16 34  1  0
 17 35  1  0
 19 36  1  0
 27 37  1  0
 27 38  1  0
M  END
$$$$
