
     RDKit          3D

 45 47  0  0  0  0  0  0  0  0999 V2000
   -5.2805   -0.1911    2.4358 C   0  0  0  0  0  0  0  0  0  0  0  0
   -5.1794   -1.7199    1.4692 S   0  0  0  0  0  0  0  0  0  0  0  0
   -4.3938   -1.0713   -0.0126 C   0  0  0  0  0  0  0  0  0  0  0  0
   -5.1616   -1.0853   -1.1871 C   0  0  0  0  0  0  0  0  0  0  0  0
   -4.6336   -0.6043   -2.3823 C   0  0  0  0  0  0  0  0  0  0  0  0
   -3.3340   -0.1123   -2.4093 C   0  0  0  0  0  0  0  0  0  0  0  0
   -2.5568   -0.1054   -1.2457 C   0  0  0  0  0  0  0  0  0  0  0  0
   -3.0668   -0.5880   -0.0383 C   0  0  0  0  0  0  0  0  0  0  0  0
   -2.3879   -0.6407    1.1440 O   0  0  0  0  0  0  0  0  0  0  0  0
   -1.0203   -0.2721    1.3248 C   0  0  0  0  0  0  0  0  0  0  0  0
   -0.0166   -1.1417    0.5683 C   0  0  0  0  0  0  0  0  0  0  0  0
    1.4154   -0.6968    0.8591 C   0  0  0  0  0  0  0  0  0  0  0  0
    1.5879    0.7415    0.5877 N   0  0  0  0  0  0  0  0  0  0  0  0
    2.9942    1.1529    0.7727 C   0  0  0  0  0  0  0  0  0  0  0  0
    3.9297    0.5999   -0.2826 C   0  0  0  0  0  0  0  0  0  0  0  0
    5.0866   -0.1013    0.0865 C   0  0  0  0  0  0  0  0  0  0  0  0
    5.9575   -0.5938   -0.8877 C   0  0  0  0  0  0  0  0  0  0  0  0
    5.6847   -0.3866   -2.2388 C   0  0  0  0  0  0  0  0  0  0  0  0
    4.5415    0.3137   -2.6183 C   0  0  0  0  0  0  0  0  0  0  0  0
    3.6703    0.8070   -1.6461 C   0  0  0  0  0  0  0  0  0  0  0  0
    0.7148    1.5424    1.4596 C   0  0  0  0  0  0  0  0  0  0  0  0
   -0.7568    1.2282    1.2028 C   0  0  0  0  0  0  0  0  0  0  0  0
   -5.7937    0.5894    1.8670 H   0  0  0  0  0  0  0  0  0  0  0  0
   -4.2884    0.1633    2.7247 H   0  0  0  0  0  0  0  0  0  0  0  0
   -5.8519   -0.3853    3.3478 H   0  0  0  0  0  0  0  0  0  0  0  0
   -6.1783   -1.4716   -1.1755 H   0  0  0  0  0  0  0  0  0  0  0  0
   -5.2339   -0.6163   -3.2879 H   0  0  0  0  0  0  0  0  0  0  0  0
   -2.9149    0.2635   -3.3402 H   0  0  0  0  0  0  0  0  0  0  0  0
   -1.5497    0.2834   -1.3331 H   0  0  0  0  0  0  0  0  0  0  0  0
   -0.8468   -0.5024    2.3862 H   0  0  0  0  0  0  0  0  0  0  0  0
   -0.1836   -1.1186   -0.5116 H   0  0  0  0  0  0  0  0  0  0  0  0
   -0.1497   -2.1912    0.8587 H   0  0  0  0  0  0  0  0  0  0  0  0
    1.6720   -0.9296    1.9012 H   0  0  0  0  0  0  0  0  0  0  0  0
    2.0792   -1.2955    0.2251 H   0  0  0  0  0  0  0  0  0  0  0  0
    3.0744    2.2465    0.7057 H   0  0  0  0  0  0  0  0  0  0  0  0
    3.3430    0.8788    1.7774 H   0  0  0  0  0  0  0  0  0  0  0  0
    5.3167   -0.2706    1.1355 H   0  0  0  0  0  0  0  0  0  0  0  0
    6.8500   -1.1392   -0.5924 H   0  0  0  0  0  0  0  0  0  0  0  0
    6.3626   -0.7713   -2.9960 H   0  0  0  0  0  0  0  0  0  0  0  0
    4.3256    0.4749   -3.6708 H   0  0  0  0  0  0  0  0  0  0  0  0
    2.7777    1.3493   -1.9509 H   0  0  0  0  0  0  0  0  0  0  0  0
    0.9544    1.3705    2.5174 H   0  0  0  0  0  0  0  0  0  0  0  0
    0.8676    2.6111    1.2644 H   0  0  0  0  0  0  0  0  0  0  0  0
   -1.0401    1.6154    0.2207 H   0  0  0  0  0  0  0  0  0  0  0  0
   -1.3868    1.7701    1.9190 H   0  0  0  0  0  0  0  0  0  0  0  0
  1  2  1  0
  2  3  1  0
  3  4  2  0
  4  5  1  0
  5  6  2  0
  6  7  1  0
  7  8  2  0
  8  9  1  0
  9 10  1  0
 10 11  1  0
 11 12  1  0
 12 13  1  0
 13 14  1  0
 14 15  1  0
 15 16  2  0
 16 17  1  0
 17 18  2  0
 18 19  1  0
 19 20  2  0
 13 21  1  0
 21 22  1  0
  8  3  1  0
 22 10  1  0
 20 15  1  0
  1 23  1  0
  1 24  1  0
  1 25  1  0
  4 26  1  0
  5 27  1  0
  6 28  1  0
  7 29  1  0
 10 30  1  0
 11 31  1  0
 11 32  1  0
 12 33  1  0
 12 34  1  0
 14 35  1  0
 14 36  1  0
 16 37  1  0
 17 38  1  0
 18 39  1  0
 19 40  1  0
 20 41  1  0
 21 42  1  0
 21 43  1  0
 22 44  1  0
 22 45  1  0
M  END
$$$$
