
     RDKit          3D

 56 59  0  0  0  0  0  0  0  0999 V2000
   -1.3441    0.7907    2.0073 C   0  0  0  0  0  0  0  0  0  0  0  0
   -0.8899    1.1514    0.7098 O   0  0  0  0  0  0  0  0  0  0  0  0
   -1.6245    0.7213   -0.3639 C   0  0  0  0  0  0  0  0  0  0  0  0
   -2.8441    0.0435   -0.2689 C   0  0  0  0  0  0  0  0  0  0  0  0
   -3.5240   -0.3696   -1.4210 C   0  0  0  0  0  0  0  0  0  0  0  0
   -2.9917   -0.1067   -2.6853 C   0  0  0  0  0  0  0  0  0  0  0  0
   -3.6804   -0.5251   -3.9417 C   0  0  0  0  0  0  0  0  0  0  0  0
   -4.8614   -1.4556   -3.8496 C   0  0  0  0  0  0  0  0  0  0  0  0
   -3.2876   -0.1027   -5.0273 O   0  0  0  0  0  0  0  0  0  0  0  0
   -1.7758    0.5787   -2.7849 C   0  0  0  0  0  0  0  0  0  0  0  0
   -1.0814    0.9964   -1.6336 C   0  0  0  0  0  0  0  0  0  0  0  0
    0.2424    1.7080   -1.7910 C   0  0  0  0  0  0  0  0  0  0  0  0
    1.6246    0.6185   -2.2537 S   0  0  0  0  0  0  0  0  0  0  0  0
    1.7364   -0.3284   -0.7863 C   0  0  0  0  0  0  0  0  0  0  0  0
    0.9279   -1.3335   -0.6993 N   0  0  0  0  0  0  0  0  0  0  0  0
    0.9332   -2.1044    0.4608 C   0  0  0  0  0  0  0  0  0  0  0  0
    0.0186   -3.1549    0.5733 C   0  0  0  0  0  0  0  0  0  0  0  0
   -0.0219   -3.9395    1.7329 C   0  0  0  0  0  0  0  0  0  0  0  0
   -0.9808   -5.0584    1.8909 C   0  0  0  0  0  0  0  0  0  0  0  0
   -1.0710   -5.7832    2.8641 O   0  0  0  0  0  0  0  0  0  0  0  0
   -1.7853   -5.2129    0.8258 O   0  0  0  0  0  0  0  0  0  0  0  0
    0.8625   -3.6694    2.7856 C   0  0  0  0  0  0  0  0  0  0  0  0
    1.7770   -2.6205    2.6775 C   0  0  0  0  0  0  0  0  0  0  0  0
    1.8021   -1.8437    1.5137 C   0  0  0  0  0  0  0  0  0  0  0  0
    2.7467   -0.7243    1.3593 C   0  0  0  0  0  0  0  0  0  0  0  0
    3.5385   -0.4973    2.2720 O   0  0  0  0  0  0  0  0  0  0  0  0
    2.6727    0.0091    0.1777 N   0  0  0  0  0  0  0  0  0  0  0  0
    3.6665    1.0755    0.0104 C   0  0  0  0  0  0  0  0  0  0  0  0
    3.1406    2.4615    0.3231 C   0  0  0  0  0  0  0  0  0  0  0  0
    3.2853    3.4980   -0.6130 C   0  0  0  0  0  0  0  0  0  0  0  0
    2.8095    4.7805   -0.3346 C   0  0  0  0  0  0  0  0  0  0  0  0
    2.1952    5.0464    0.8867 C   0  0  0  0  0  0  0  0  0  0  0  0
    2.0632    4.0331    1.8333 C   0  0  0  0  0  0  0  0  0  0  0  0
    2.5385    2.7499    1.5567 C   0  0  0  0  0  0  0  0  0  0  0  0
   -0.6107    1.1590    2.7311 H   0  0  0  0  0  0  0  0  0  0  0  0
   -1.4041   -0.2967    2.1201 H   0  0  0  0  0  0  0  0  0  0  0  0
   -2.3037    1.2666    2.2334 H   0  0  0  0  0  0  0  0  0  0  0  0
   -3.2970   -0.1814    0.6914 H   0  0  0  0  0  0  0  0  0  0  0  0
   -4.4699   -0.8891   -1.2999 H   0  0  0  0  0  0  0  0  0  0  0  0
   -4.6111   -2.3352   -3.2507 H   0  0  0  0  0  0  0  0  0  0  0  0
   -5.1235   -1.8028   -4.8540 H   0  0  0  0  0  0  0  0  0  0  0  0
   -5.7217   -0.9294   -3.4286 H   0  0  0  0  0  0  0  0  0  0  0  0
   -1.3536    0.7811   -3.7693 H   0  0  0  0  0  0  0  0  0  0  0  0
    0.5012    2.2718   -0.8914 H   0  0  0  0  0  0  0  0  0  0  0  0
    0.1392    2.4612   -2.5815 H   0  0  0  0  0  0  0  0  0  0  0  0
   -0.6603   -3.3468   -0.2545 H   0  0  0  0  0  0  0  0  0  0  0  0
   -2.3431   -5.9848    1.0588 H   0  0  0  0  0  0  0  0  0  0  0  0
    0.8426   -4.2749    3.6905 H   0  0  0  0  0  0  0  0  0  0  0  0
    2.4644   -2.4124    3.4949 H   0  0  0  0  0  0  0  0  0  0  0  0
    4.0540    1.0344   -1.0141 H   0  0  0  0  0  0  0  0  0  0  0  0
    4.5356    0.8950    0.6549 H   0  0  0  0  0  0  0  0  0  0  0  0
    3.7640    3.3129   -1.5728 H   0  0  0  0  0  0  0  0  0  0  0  0
    2.9208    5.5729   -1.0703 H   0  0  0  0  0  0  0  0  0  0  0  0
    1.8263    6.0453    1.1044 H   0  0  0  0  0  0  0  0  0  0  0  0
    1.5947    4.2422    2.7915 H   0  0  0  0  0  0  0  0  0  0  0  0
    2.4388    1.9790    2.3177 H   0  0  0  0  0  0  0  0  0  0  0  0
  1  2  1  0
  2  3  1  0
  3  4  2  0
  4  5  1  0
  5  6  2  0
  6  7  1  0
  7  8  1  0
  7  9  2  0
  6 10  1  0
 10 11  2  0
 11 12  1  0
 12 13  1  0
 13 14  1  0
 14 15  2  0
 15 16  1  0
 16 17  2  0
 17 18  1  0
 18 19  1  0
 19 20  2  0
 19 21  1  0
 18 22  2  0
 22 23  1  0
 23 24  2  0
 24 25  1  0
 25 26  2  0
 25 27  1  0
 27 28  1  0
 28 29  1  0
 29 30  2  0
 30 31  1  0
 31 32  2  0
 32 33  1  0
 33 34  2  0
 11  3  1  0
 27 14  1  0
 34 29  1  0
 24 16  1  0
  1 35  1  0
  1 36  1  0
  1 37  1  0
  4 38  1  0
  5 39  1  0
  8 40  1  0
  8 41  1  0
  8 42  1  0
 10 43  1  0
 12 44  1  0
 12 45  1  0
 17 46  1  0
 21 47  1  0
 22 48  1  0
 23 49  1  0
 28 50  1  0
 28 51  1  0
 30 52  1  0
 31 53  1  0
 32 54  1  0
 33 55  1  0
 34 56  1  0
M  END
$$$$
