
     RDKit          3D

 85 88  0  0  0  0  0  0  0  0999 V2000
    8.7521    6.2018    0.5296 C   0  0  0  0  0  0  0  0  0  0  0  0
    7.8275    5.7318    1.5034 O   0  0  0  0  0  0  0  0  0  0  0  0
    7.0570    4.6587    1.1542 C   0  0  0  0  0  0  0  0  0  0  0  0
    7.1071    3.9658   -0.0530 C   0  0  0  0  0  0  0  0  0  0  0  0
    6.2546    2.8762   -0.2812 C   0  0  0  0  0  0  0  0  0  0  0  0
    5.3433    2.4638    0.6911 C   0  0  0  0  0  0  0  0  0  0  0  0
    4.4458    1.3867    0.5341 N   0  0  0  0  0  0  0  0  0  0  0  0
    4.2968    0.5565   -0.5676 C   0  0  0  0  0  0  0  0  0  0  0  0
    4.9553    0.6263   -1.5956 O   0  0  0  0  0  0  0  0  0  0  0  0
    3.2831   -0.3614   -0.3452 N   0  0  0  0  0  0  0  0  0  0  0  0
    2.9018   -1.4576   -1.1545 C   0  0  0  0  0  0  0  0  0  0  0  0
    3.5891   -1.8395   -2.3066 C   0  0  0  0  0  0  0  0  0  0  0  0
    3.2192   -2.9941   -2.9967 C   0  0  0  0  0  0  0  0  0  0  0  0
    2.1831   -3.7936   -2.5163 C   0  0  0  0  0  0  0  0  0  0  0  0
    1.4593   -3.4132   -1.3766 C   0  0  0  0  0  0  0  0  0  0  0  0
    1.7902   -2.2209   -0.7353 C   0  0  0  0  0  0  0  0  0  0  0  0
    1.0569   -1.7823    0.3369 O   0  0  0  0  0  0  0  0  0  0  0  0
    0.0624   -0.8179   -0.0908 C   0  0  0  0  0  0  0  0  0  0  0  0
   -0.3111   -0.0411    1.1972 C   0  0  0  0  0  0  0  0  0  0  0  0
   -1.1631    1.1304    0.9755 N   0  0  0  0  0  0  0  0  0  0  0  0
   -0.5498    2.2885    0.3346 C   0  0  0  0  0  0  0  0  0  0  0  0
   -2.5098    1.0222    1.2902 C   0  0  0  0  0  0  0  0  0  0  0  0
   -2.9725    0.0501    1.8800 O   0  0  0  0  0  0  0  0  0  0  0  0
   -3.2936    2.0697    0.8810 N   0  0  0  0  0  0  0  0  0  0  0  0
   -4.7345    2.0529    1.1075 C   0  0  0  0  0  0  0  0  0  0  0  0
   -5.2824    3.4834    1.0912 C   0  0  0  0  0  0  0  0  0  0  0  0
   -6.7958    3.5075    1.2891 C   0  0  0  0  0  0  0  0  0  0  0  0
   -7.5088    2.6340    0.2622 C   0  0  0  0  0  0  0  0  0  0  0  0
   -6.9621    1.2085    0.2562 C   0  0  0  0  0  0  0  0  0  0  0  0
   -5.4490    1.1861    0.0604 C   0  0  0  0  0  0  0  0  0  0  0  0
   -1.1644   -1.5038   -0.7372 C   0  0  0  0  0  0  0  0  0  0  0  0
   -1.1555   -1.4600   -2.2698 C   0  0  0  0  0  0  0  0  0  0  0  0
   -1.4269   -2.8990   -0.1560 C   0  0  0  0  0  0  0  0  0  0  0  0
   -0.9160   -4.0692   -0.8882 N   0  0  0  0  0  0  0  0  0  0  0  0
   -1.8581   -5.2213   -0.9157 C   0  0  0  0  0  0  0  0  0  0  0  0
   -1.7027   -6.0694   -2.1866 C   0  0  0  0  0  0  0  0  0  0  0  0
   -1.8215   -6.0893    0.3593 C   0  0  0  0  0  0  0  0  0  0  0  0
   -3.0170   -6.8647    0.4627 O   0  0  0  0  0  0  0  0  0  0  0  0
    0.4542   -4.3869   -0.8973 C   0  0  0  0  0  0  0  0  0  0  0  0
    0.8773   -5.5282   -0.7035 O   0  0  0  0  0  0  0  0  0  0  0  0
    5.3036    3.1584    1.9055 C   0  0  0  0  0  0  0  0  0  0  0  0
    6.1520    4.2466    2.1317 C   0  0  0  0  0  0  0  0  0  0  0  0
    9.5269    5.4561    0.3334 H   0  0  0  0  0  0  0  0  0  0  0  0
    8.2405    6.4958   -0.3932 H   0  0  0  0  0  0  0  0  0  0  0  0
    9.2358    7.0973    0.9317 H   0  0  0  0  0  0  0  0  0  0  0  0
    7.7996    4.2386   -0.8424 H   0  0  0  0  0  0  0  0  0  0  0  0
    6.3402    2.3680   -1.2350 H   0  0  0  0  0  0  0  0  0  0  0  0
    3.8725    1.1795    1.3364 H   0  0  0  0  0  0  0  0  0  0  0  0
    2.7623   -0.2834    0.5146 H   0  0  0  0  0  0  0  0  0  0  0  0
    4.4390   -1.2773   -2.6807 H   0  0  0  0  0  0  0  0  0  0  0  0
    3.7687   -3.2918   -3.8862 H   0  0  0  0  0  0  0  0  0  0  0  0
    1.9431   -4.7249   -3.0269 H   0  0  0  0  0  0  0  0  0  0  0  0
    0.5001   -0.0953   -0.7933 H   0  0  0  0  0  0  0  0  0  0  0  0
   -0.7806   -0.7301    1.9092 H   0  0  0  0  0  0  0  0  0  0  0  0
    0.6016    0.3058    1.6971 H   0  0  0  0  0  0  0  0  0  0  0  0
   -0.5862    2.1472   -0.7503 H   0  0  0  0  0  0  0  0  0  0  0  0
   -1.0758    3.2105    0.5998 H   0  0  0  0  0  0  0  0  0  0  0  0
    0.4930    2.3810    0.6600 H   0  0  0  0  0  0  0  0  0  0  0  0
   -2.9918    2.5205    0.0331 H   0  0  0  0  0  0  0  0  0  0  0  0
   -4.9135    1.6204    2.1019 H   0  0  0  0  0  0  0  0  0  0  0  0
   -4.7997    4.0765    1.8783 H   0  0  0  0  0  0  0  0  0  0  0  0
   -5.0331    3.9677    0.1378 H   0  0  0  0  0  0  0  0  0  0  0  0
   -7.1606    4.5384    1.2111 H   0  0  0  0  0  0  0  0  0  0  0  0
   -7.0391    3.1566    2.2990 H   0  0  0  0  0  0  0  0  0  0  0  0
   -7.3891    3.0759   -0.7360 H   0  0  0  0  0  0  0  0  0  0  0  0
   -8.5850    2.6154    0.4748 H   0  0  0  0  0  0  0  0  0  0  0  0
   -7.2129    0.7162    1.2041 H   0  0  0  0  0  0  0  0  0  0  0  0
   -7.4474    0.6333   -0.5407 H   0  0  0  0  0  0  0  0  0  0  0  0
   -5.2031    1.5438   -0.9492 H   0  0  0  0  0  0  0  0  0  0  0  0
   -5.0929    0.1500    0.1126 H   0  0  0  0  0  0  0  0  0  0  0  0
   -2.0405   -0.8987   -0.4777 H   0  0  0  0  0  0  0  0  0  0  0  0
   -1.1243   -0.4202   -2.6196 H   0  0  0  0  0  0  0  0  0  0  0  0
   -2.0703   -1.9119   -2.6710 H   0  0  0  0  0  0  0  0  0  0  0  0
   -0.3055   -1.9795   -2.7124 H   0  0  0  0  0  0  0  0  0  0  0  0
   -1.0845   -2.9783    0.8834 H   0  0  0  0  0  0  0  0  0  0  0  0
   -2.5195   -2.9915   -0.1070 H   0  0  0  0  0  0  0  0  0  0  0  0
   -2.8700   -4.8010   -1.0006 H   0  0  0  0  0  0  0  0  0  0  0  0
   -2.5249   -6.7883   -2.2709 H   0  0  0  0  0  0  0  0  0  0  0  0
   -1.7118   -5.4325   -3.0781 H   0  0  0  0  0  0  0  0  0  0  0  0
   -0.7697   -6.6438   -2.1951 H   0  0  0  0  0  0  0  0  0  0  0  0
   -1.7664   -5.4561    1.2501 H   0  0  0  0  0  0  0  0  0  0  0  0
   -0.9697   -6.7760    0.3703 H   0  0  0  0  0  0  0  0  0  0  0  0
   -2.9587   -7.3510    1.3037 H   0  0  0  0  0  0  0  0  0  0  0  0
    4.6177    2.8674    2.6951 H   0  0  0  0  0  0  0  0  0  0  0  0
    6.1087    4.7771    3.0796 H   0  0  0  0  0  0  0  0  0  0  0  0
  1  2  1  0
  2  3  1  0
  3  4  2  0
  4  5  1  0
  5  6  2  0
  6  7  1  0
  7  8  1  0
  8  9  2  0
  8 10  1  0
 10 11  1  0
 11 12  2  0
 12 13  1  0
 13 14  2  0
 14 15  1  0
 15 16  2  0
 16 17  1  0
 17 18  1  0
 18 19  1  0
 19 20  1  0
 20 21  1  0
 20 22  1  0
 22 23  2  0
 22 24  1  0
 24 25  1  0
 25 26  1  0
 26 27  1  0
 27 28  1  0
 28 29  1  0
 29 30  1  0
 18 31  1  0
 31 32  1  0
 31 33  1  0
 33 34  1  0
 34 35  1  0
 35 36  1  0
 35 37  1  0
 37 38  1  0
 34 39  1  0
 39 40  2  0
  6 41  1  0
 41 42  2  0
 42  3  1  0
 16 11  1  0
 30 25  1  0
 39 15  1  0
  1 43  1  0
  1 44  1  0
  1 45  1  0
  4 46  1  0
  5 47  1  0
  7 48  1  0
 10 49  1  0
 12 50  1  0
 13 51  1  0
 14 52  1  0
 18 53  1  0
 19 54  1  0
 19 55  1  0
 21 56  1  0
 21 57  1  0
 21 58  1  0
 24 59  1  0
 25 60  1  0
 26 61  1  0
 26 62  1  0
 27 63  1  0
 27 64  1  0
 28 65  1  0
 28 66  1  0
 29 67  1  0
 29 68  1  0
 30 69  1  0
 30 70  1  0
 31 71  1  0
 32 72  1  0
 32 73  1  0
 32 74  1  0
 33 75  1  0
 33 76  1  0
 35 77  1  0
 36 78  1  0
 36 79  1  0
 36 80  1  0
 37 81  1  0
 37 82  1  0
 38 83  1  0
 41 84  1  0
 42 85  1  0
M  END
$$$$
