
     RDKit          3D

 47 49  0  0  0  0  0  0  0  0999 V2000
    8.1964   -0.3138   -0.9206 C   0  0  0  0  0  0  0  0  0  0  0  0
    6.8311   -0.6088   -1.5228 C   0  0  0  0  0  0  0  0  0  0  0  0
    5.7108   -0.1540   -0.6222 C   0  0  0  0  0  0  0  0  0  0  0  0
    5.1961    1.1443   -0.7290 C   0  0  0  0  0  0  0  0  0  0  0  0
    4.1723    1.5706    0.1203 C   0  0  0  0  0  0  0  0  0  0  0  0
    3.6447    0.7061    1.0809 C   0  0  0  0  0  0  0  0  0  0  0  0
    2.6085    1.1313    1.9212 N   0  0  0  0  0  0  0  0  0  0  0  0
    1.3900    0.9316    1.5545 C   0  0  0  0  0  0  0  0  0  0  0  0
    0.9539    0.3387    0.4139 N   0  0  0  0  0  0  0  0  0  0  0  0
   -0.3939    0.2247    0.2262 C   0  0  0  0  0  0  0  0  0  0  0  0
   -0.8948   -0.2922   -0.7581 O   0  0  0  0  0  0  0  0  0  0  0  0
   -1.1205    0.8203    1.3867 C   0  0  0  0  0  0  0  0  0  0  0  0
   -2.4421    0.8974    1.5994 C   0  0  0  0  0  0  0  0  0  0  0  0
   -3.5128    0.4163    0.7172 C   0  0  0  0  0  0  0  0  0  0  0  0
   -4.4319   -0.5172    1.2203 C   0  0  0  0  0  0  0  0  0  0  0  0
   -5.4922   -0.9546    0.4275 C   0  0  0  0  0  0  0  0  0  0  0  0
   -6.4574   -1.8582    0.7975 O   0  0  0  0  0  0  0  0  0  0  0  0
   -6.3364   -2.4299    2.0946 C   0  0  0  0  0  0  0  0  0  0  0  0
   -5.6262   -0.4455   -0.8722 C   0  0  0  0  0  0  0  0  0  0  0  0
   -6.6762   -0.8800   -1.6462 O   0  0  0  0  0  0  0  0  0  0  0  0
   -4.7194    0.4827   -1.3942 C   0  0  0  0  0  0  0  0  0  0  0  0
   -4.9512    0.9168   -2.6727 O   0  0  0  0  0  0  0  0  0  0  0  0
   -3.8652    1.5435   -3.3411 C   0  0  0  0  0  0  0  0  0  0  0  0
   -3.6714    0.9227   -0.5817 C   0  0  0  0  0  0  0  0  0  0  0  0
    0.0354    1.4262    2.5335 S   0  0  0  0  0  0  0  0  0  0  0  0
    4.1740   -0.5794    1.2080 C   0  0  0  0  0  0  0  0  0  0  0  0
    5.1975   -1.0099    0.3606 C   0  0  0  0  0  0  0  0  0  0  0  0
    8.3314    0.7594   -0.7485 H   0  0  0  0  0  0  0  0  0  0  0  0
    8.9887   -0.6514   -1.5961 H   0  0  0  0  0  0  0  0  0  0  0  0
    8.3269   -0.8265    0.0385 H   0  0  0  0  0  0  0  0  0  0  0  0
    6.7352   -1.6842   -1.7156 H   0  0  0  0  0  0  0  0  0  0  0  0
    6.7423   -0.1167   -2.4990 H   0  0  0  0  0  0  0  0  0  0  0  0
    5.5961    1.8354   -1.4678 H   0  0  0  0  0  0  0  0  0  0  0  0
    3.7891    2.5841    0.0373 H   0  0  0  0  0  0  0  0  0  0  0  0
    1.5879   -0.0198   -0.2823 H   0  0  0  0  0  0  0  0  0  0  0  0
   -2.8078    1.3436    2.5237 H   0  0  0  0  0  0  0  0  0  0  0  0
   -4.2992   -0.8854    2.2323 H   0  0  0  0  0  0  0  0  0  0  0  0
   -5.4004   -2.9892    2.1943 H   0  0  0  0  0  0  0  0  0  0  0  0
   -7.1619   -3.1360    2.2262 H   0  0  0  0  0  0  0  0  0  0  0  0
   -6.4260   -1.6643    2.8721 H   0  0  0  0  0  0  0  0  0  0  0  0
   -7.1606   -1.5146   -1.0864 H   0  0  0  0  0  0  0  0  0  0  0  0
   -2.9594    0.9285   -3.3036 H   0  0  0  0  0  0  0  0  0  0  0  0
   -3.6814    2.5421   -2.9327 H   0  0  0  0  0  0  0  0  0  0  0  0
   -4.1435    1.6620   -4.3930 H   0  0  0  0  0  0  0  0  0  0  0  0
   -2.9672    1.6648   -0.9430 H   0  0  0  0  0  0  0  0  0  0  0  0
    3.7921   -1.2474    1.9755 H   0  0  0  0  0  0  0  0  0  0  0  0
    5.5986   -2.0142    0.4790 H   0  0  0  0  0  0  0  0  0  0  0  0
  1  2  1  0
  2  3  1  0
  3  4  2  0
  4  5  1  0
  5  6  2  0
  6  7  1  0
  7  8  2  3
  8  9  1  0
  9 10  1  0
 10 11  2  0
 10 12  1  0
 12 13  2  3
 13 14  1  0
 14 15  2  0
 15 16  1  0
 16 17  1  0
 17 18  1  0
 16 19  2  0
 19 20  1  0
 19 21  1  0
 21 22  1  0
 22 23  1  0
 21 24  2  0
 12 25  1  0
  6 26  1  0
 26 27  2  0
 27  3  1  0
 25  8  1  0
 24 14  1  0
  1 28  1  0
  1 29  1  0
  1 30  1  0
  2 31  1  0
  2 32  1  0
  4 33  1  0
  5 34  1  0
  9 35  1  0
 13 36  1  0
 15 37  1  0
 18 38  1  0
 18 39  1  0
 18 40  1  0
 20 41  1  0
 23 42  1  0
 23 43  1  0
 23 44  1  0
 24 45  1  0
 26 46  1  0
 27 47  1  0
M  END
$$$$
