
     RDKit          3D

 58 60  0  0  0  0  0  0  0  0999 V2000
    0.8336    1.3361   -3.4371 C   0  0  0  0  0  0  0  0  0  0  0  0
    1.5775    0.3664   -2.5552 C   0  0  0  0  0  0  0  0  0  0  0  0
    2.9172    0.6563   -2.2333 C   0  0  0  0  0  0  0  0  0  0  0  0
    3.6506   -0.1879   -1.4059 C   0  0  0  0  0  0  0  0  0  0  0  0
    3.0413   -1.3287   -0.8896 C   0  0  0  0  0  0  0  0  0  0  0  0
    3.9785   -2.3776    0.1925 S   0  0  0  0  0  6  0  0  0  0  0  0
    3.2110   -3.5680    0.4983 O   0  0  0  0  0  0  0  0  0  0  0  0
    5.3201   -2.4707   -0.3507 O   0  0  0  0  0  0  0  0  0  0  0  0
    4.0548   -1.4431    1.6204 N   0  0  0  0  0  0  0  0  0  0  0  0
    2.7273   -1.1060    2.2397 C   0  0  0  0  0  0  0  0  0  0  0  0
    2.9296   -0.6105    3.6763 C   0  0  0  0  0  0  0  0  0  0  0  0
    3.4815   -1.6108    4.5456 O   0  0  0  0  0  0  0  0  0  0  0  0
    4.3120   -2.5668    3.8477 C   0  0  0  0  0  0  0  0  0  0  0  0
    5.0339   -1.9675    2.6326 C   0  0  0  0  0  0  0  0  0  0  0  0
    1.7157   -1.6455   -1.2070 C   0  0  0  0  0  0  0  0  0  0  0  0
    0.9702   -0.8010   -2.0383 C   0  0  0  0  0  0  0  0  0  0  0  0
   -0.3765   -1.0682   -2.3804 N   0  0  0  0  0  0  0  0  0  0  0  0
   -1.1909   -2.0885   -1.9232 C   0  0  0  0  0  0  0  0  0  0  0  0
   -0.8759   -2.9791   -1.1348 O   0  0  0  0  0  0  0  0  0  0  0  0
   -2.5981   -2.0602   -2.5224 C   0  0  0  0  0  0  0  0  0  0  0  0
   -3.3032   -0.8412   -2.2710 O   0  0  0  0  0  0  0  0  0  0  0  0
   -3.2142    0.1120   -3.2444 C   0  0  0  0  0  0  0  0  0  0  0  0
   -2.5613   -0.0226   -4.2774 O   0  0  0  0  0  0  0  0  0  0  0  0
   -4.0892    1.3228   -2.9341 C   0  0  0  0  0  0  0  0  0  0  0  0
   -4.3669    1.4760   -1.5133 N   0  0  0  0  0  0  0  0  0  0  0  0
   -3.3983    2.0413   -0.7050 C   0  0  0  0  0  0  0  0  0  0  0  0
   -2.3592    2.5193   -1.1511 O   0  0  0  0  0  0  0  0  0  0  0  0
   -3.6454    1.9870    0.7587 C   0  0  0  0  0  0  0  0  0  0  0  0
   -2.5432    1.9253    1.6145 C   0  0  0  0  0  0  0  0  0  0  0  0
   -2.7336    1.8666    2.9938 C   0  0  0  0  0  0  0  0  0  0  0  0
   -4.0235    1.8786    3.5220 C   0  0  0  0  0  0  0  0  0  0  0  0
   -5.1228    1.9618    2.6746 C   0  0  0  0  0  0  0  0  0  0  0  0
   -4.9388    2.0158    1.2923 C   0  0  0  0  0  0  0  0  0  0  0  0
   -0.0512    1.7205   -2.9198 H   0  0  0  0  0  0  0  0  0  0  0  0
    1.4534    2.1976   -3.7027 H   0  0  0  0  0  0  0  0  0  0  0  0
    0.5328    0.8482   -4.3694 H   0  0  0  0  0  0  0  0  0  0  0  0
    3.3961    1.5537   -2.6209 H   0  0  0  0  0  0  0  0  0  0  0  0
    4.6832    0.0485   -1.1619 H   0  0  0  0  0  0  0  0  0  0  0  0
    2.0776   -1.9905    2.2482 H   0  0  0  0  0  0  0  0  0  0  0  0
    2.2493   -0.3130    1.6541 H   0  0  0  0  0  0  0  0  0  0  0  0
    1.9777   -0.2924    4.1071 H   0  0  0  0  0  0  0  0  0  0  0  0
    3.6022    0.2564    3.6937 H   0  0  0  0  0  0  0  0  0  0  0  0
    3.6776   -3.4141    3.5445 H   0  0  0  0  0  0  0  0  0  0  0  0
    5.0439   -2.9517    4.5618 H   0  0  0  0  0  0  0  0  0  0  0  0
    5.7024   -2.7215    2.1971 H   0  0  0  0  0  0  0  0  0  0  0  0
    5.6580   -1.1151    2.9422 H   0  0  0  0  0  0  0  0  0  0  0  0
    1.2841   -2.5472   -0.7826 H   0  0  0  0  0  0  0  0  0  0  0  0
   -0.8030   -0.4256   -3.0417 H   0  0  0  0  0  0  0  0  0  0  0  0
   -3.1787   -2.8615   -2.0525 H   0  0  0  0  0  0  0  0  0  0  0  0
   -2.5449   -2.3018   -3.5883 H   0  0  0  0  0  0  0  0  0  0  0  0
   -5.0464    1.1885   -3.4470 H   0  0  0  0  0  0  0  0  0  0  0  0
   -3.5911    2.2235   -3.3068 H   0  0  0  0  0  0  0  0  0  0  0  0
   -5.0264    0.8323   -1.0935 H   0  0  0  0  0  0  0  0  0  0  0  0
   -1.5356    1.9155    1.2087 H   0  0  0  0  0  0  0  0  0  0  0  0
   -1.8790    1.8084    3.6566 H   0  0  0  0  0  0  0  0  0  0  0  0
   -4.1668    1.8335    4.5971 H   0  0  0  0  0  0  0  0  0  0  0  0
   -6.1229    1.9927    3.0906 H   0  0  0  0  0  0  0  0  0  0  0  0
   -5.8062    2.1098    0.6506 H   0  0  0  0  0  0  0  0  0  0  0  0
  1  2  1  0
  2  3  2  0
  3  4  1  0
  4  5  2  0
  5  6  1  0
  6  7  2  0
  6  8  2  0
  6  9  1  0
  9 10  1  0
 10 11  1  0
 11 12  1  0
 12 13  1  0
 13 14  1  0
  5 15  1  0
 15 16  2  0
 16 17  1  0
 17 18  1  0
 18 19  2  0
 18 20  1  0
 20 21  1  0
 21 22  1  0
 22 23  2  0
 22 24  1  0
 24 25  1  0
 25 26  1  0
 26 27  2  0
 26 28  1  0
 28 29  2  0
 29 30  1  0
 30 31  2  0
 31 32  1  0
 32 33  2  0
 16  2  1  0
 33 28  1  0
 14  9  1  0
  1 34  1  0
  1 35  1  0
  1 36  1  0
  3 37  1  0
  4 38  1  0
 10 39  1  0
 10 40  1  0
 11 41  1  0
 11 42  1  0
 13 43  1  0
 13 44  1  0
 14 45  1  0
 14 46  1  0
 15 47  1  0
 17 48  1  0
 20 49  1  0
 20 50  1  0
 24 51  1  0
 24 52  1  0
 25 53  1  0
 29 54  1  0
 30 55  1  0
 31 56  1  0
 32 57  1  0
 33 58  1  0
M  END
$$$$
