
     RDKit          3D

 37 38  0  0  0  0  0  0  0  0999 V2000
   -5.7887    0.2079    1.3141 C   0  0  0  0  0  0  0  0  0  0  0  0
   -5.1327    0.3596    0.0158 N   0  0  0  0  0  0  0  0  0  0  0  0
   -5.9749    0.0935   -1.1499 C   0  0  0  0  0  0  0  0  0  0  0  0
   -3.7511    0.1681   -0.0789 C   0  0  0  0  0  0  0  0  0  0  0  0
   -3.0988    0.0157   -1.3143 C   0  0  0  0  0  0  0  0  0  0  0  0
   -1.7086   -0.1541   -1.4161 C   0  0  0  0  0  0  0  0  0  0  0  0
   -0.9062   -0.1559   -0.2767 C   0  0  0  0  0  0  0  0  0  0  0  0
    0.5424   -0.3568   -0.4186 C   0  0  0  0  0  0  0  0  0  0  0  0
    1.4536    0.3173    0.3020 C   0  0  0  0  0  0  0  0  0  0  0  0
    2.9033    0.1347    0.1676 C   0  0  0  0  0  0  0  0  0  0  0  0
    3.7043    0.2103    1.3058 C   0  0  0  0  0  0  0  0  0  0  0  0
    5.0827    0.0665    1.1921 C   0  0  0  0  0  0  0  0  0  0  0  0
    5.6569   -0.1286   -0.0156 N   0  0  0  0  0  4  0  0  0  0  0  0
    7.1179   -0.2884   -0.1110 C   0  0  0  0  0  0  0  0  0  0  0  0
    4.9026   -0.1962   -1.1349 C   0  0  0  0  0  0  0  0  0  0  0  0
    3.5205   -0.0598   -1.0673 C   0  0  0  0  0  0  0  0  0  0  0  0
   -1.5265   -0.0108    0.9632 C   0  0  0  0  0  0  0  0  0  0  0  0
   -2.9179    0.1567    1.0529 C   0  0  0  0  0  0  0  0  0  0  0  0
   -5.6408   -0.8014    1.7136 H   0  0  0  0  0  0  0  0  0  0  0  0
   -5.4192    0.9468    2.0332 H   0  0  0  0  0  0  0  0  0  0  0  0
   -6.8686    0.3779    1.2380 H   0  0  0  0  0  0  0  0  0  0  0  0
   -5.8924   -0.9529   -1.4636 H   0  0  0  0  0  0  0  0  0  0  0  0
   -5.7133    0.7510   -1.9860 H   0  0  0  0  0  0  0  0  0  0  0  0
   -7.0306    0.2912   -0.9325 H   0  0  0  0  0  0  0  0  0  0  0  0
   -3.6584    0.0272   -2.2449 H   0  0  0  0  0  0  0  0  0  0  0  0
   -1.2716   -0.2696   -2.4050 H   0  0  0  0  0  0  0  0  0  0  0  0
    0.8315   -1.0917   -1.1655 H   0  0  0  0  0  0  0  0  0  0  0  0
    1.1318    1.0489    1.0420 H   0  0  0  0  0  0  0  0  0  0  0  0
    3.2616    0.3702    2.2876 H   0  0  0  0  0  0  0  0  0  0  0  0
    5.7332    0.1063    2.0613 H   0  0  0  0  0  0  0  0  0  0  0  0
    7.4578    0.0949   -1.0766 H   0  0  0  0  0  0  0  0  0  0  0  0
    7.5944    0.2805    0.6915 H   0  0  0  0  0  0  0  0  0  0  0  0
    7.3369   -1.3548   -0.0159 H   0  0  0  0  0  0  0  0  0  0  0  0
    5.4134   -0.3561   -2.0803 H   0  0  0  0  0  0  0  0  0  0  0  0
    2.9366   -0.0964   -1.9849 H   0  0  0  0  0  0  0  0  0  0  0  0
   -0.9494   -0.0311    1.8837 H   0  0  0  0  0  0  0  0  0  0  0  0
   -3.3318    0.2793    2.0493 H   0  0  0  0  0  0  0  0  0  0  0  0
  1  2  1  0
  2  3  1  0
  2  4  1  0
  4  5  2  0
  5  6  1  0
  6  7  2  0
  7  8  1  0
  8  9  2  3
  9 10  1  0
 10 11  2  0
 11 12  1  0
 12 13  2  0
 13 14  1  0
 13 15  1  0
 15 16  2  0
  7 17  1  0
 17 18  2  0
 18  4  1  0
 16 10  1  0
  1 19  1  0
  1 20  1  0
  1 21  1  0
  3 22  1  0
  3 23  1  0
  3 24  1  0
  5 25  1  0
  6 26  1  0
  8 27  1  0
  9 28  1  0
 11 29  1  0
 12 30  1  0
 14 31  1  0
 14 32  1  0
 14 33  1  0
 15 34  1  0
 16 35  1  0
 17 36  1  0
 18 37  1  0
M  CHG  1  13   1
M  END
$$$$
