
     RDKit          3D

 55 60  0  0  0  0  0  0  0  0999 V2000
   -7.4905    1.7675    0.8962 C   0  0  0  0  0  0  0  0  0  0  0  0
   -7.0619    0.6913    1.6745 C   0  0  0  0  0  0  0  0  0  0  0  0
   -5.8857    0.0170    1.3446 C   0  0  0  0  0  0  0  0  0  0  0  0
   -5.1312    0.4313    0.2416 C   0  0  0  0  0  0  0  0  0  0  0  0
   -3.8936   -0.3135   -0.0992 C   0  0  0  0  0  0  0  0  0  0  0  0
   -3.9607   -1.6079   -0.1960 N   0  0  0  0  0  0  0  0  0  0  0  0
   -2.8126   -2.3278   -0.5797 C   0  0  0  0  0  0  0  0  0  0  0  0
   -2.9471   -3.7065   -0.7695 C   0  0  0  0  0  0  0  0  0  0  0  0
   -1.8673   -4.4772   -1.2020 C   0  0  0  0  0  0  0  0  0  0  0  0
   -0.6425   -3.8684   -1.4646 C   0  0  0  0  0  0  0  0  0  0  0  0
   -0.4883   -2.4930   -1.2778 C   0  0  0  0  0  0  0  0  0  0  0  0
   -1.5619   -1.7293   -0.8109 C   0  0  0  0  0  0  0  0  0  0  0  0
   -1.4867   -0.3324   -0.5813 N   0  0  0  0  0  0  0  0  0  0  0  0
   -0.4023    0.5496   -0.5774 C   0  0  0  0  0  0  0  0  0  0  0  0
    0.9107    0.1541   -0.6348 N   0  0  0  0  0  0  0  0  0  0  0  0
    1.4631   -0.4623    0.6074 C   0  0  0  0  0  0  0  0  0  0  0  0
    2.6818    0.3023    1.1732 C   0  0  0  0  0  0  0  0  0  0  0  0
    3.7548    0.4228    0.1690 N   0  0  0  0  0  0  0  0  0  0  0  0
    5.0780    0.6196    0.5262 C   0  0  0  0  0  0  0  0  0  0  0  0
    5.4492    1.0434    1.8127 C   0  0  0  0  0  0  0  0  0  0  0  0
    6.7886    1.2390    2.1739 C   0  0  0  0  0  0  0  0  0  0  0  0
    7.8006    1.0088    1.2506 C   0  0  0  0  0  0  0  0  0  0  0  0
    7.4696    0.5829   -0.0292 C   0  0  0  0  0  0  0  0  0  0  0  0
    6.1272    0.3920   -0.3804 C   0  0  0  0  0  0  0  0  0  0  0  0
    3.3202    0.5103   -1.2391 C   0  0  0  0  0  0  0  0  0  0  0  0
    1.8694    1.0309   -1.3484 C   0  0  0  0  0  0  0  0  0  0  0  0
   -0.9170    1.8269   -0.4501 C   0  0  0  0  0  0  0  0  0  0  0  0
   -2.3060    1.7217   -0.2283 C   0  0  0  0  0  0  0  0  0  0  0  0
   -2.6393    0.3833   -0.2919 C   0  0  0  0  0  0  0  0  0  0  0  0
   -5.5731    1.4956   -0.5518 C   0  0  0  0  0  0  0  0  0  0  0  0
   -6.7507    2.1666   -0.2180 C   0  0  0  0  0  0  0  0  0  0  0  0
   -8.4100    2.2886    1.1520 H   0  0  0  0  0  0  0  0  0  0  0  0
   -7.6470    0.3729    2.5335 H   0  0  0  0  0  0  0  0  0  0  0  0
   -5.5582   -0.8294    1.9438 H   0  0  0  0  0  0  0  0  0  0  0  0
   -3.9104   -4.1764   -0.5886 H   0  0  0  0  0  0  0  0  0  0  0  0
   -1.9895   -5.5467   -1.3503 H   0  0  0  0  0  0  0  0  0  0  0  0
    0.1933   -4.4625   -1.8258 H   0  0  0  0  0  0  0  0  0  0  0  0
    0.4651   -2.0448   -1.5327 H   0  0  0  0  0  0  0  0  0  0  0  0
    0.6973   -0.5387    1.3898 H   0  0  0  0  0  0  0  0  0  0  0  0
    1.7769   -1.4847    0.3648 H   0  0  0  0  0  0  0  0  0  0  0  0
    2.3744    1.3035    1.4988 H   0  0  0  0  0  0  0  0  0  0  0  0
    3.0342   -0.2516    2.0515 H   0  0  0  0  0  0  0  0  0  0  0  0
    4.6946    1.2552    2.5646 H   0  0  0  0  0  0  0  0  0  0  0  0
    7.0335    1.5744    3.1780 H   0  0  0  0  0  0  0  0  0  0  0  0
    8.8402    1.1579    1.5275 H   0  0  0  0  0  0  0  0  0  0  0  0
    8.2514    0.3902   -0.7588 H   0  0  0  0  0  0  0  0  0  0  0  0
    5.9182    0.0314   -1.3837 H   0  0  0  0  0  0  0  0  0  0  0  0
    3.9568    1.2002   -1.8058 H   0  0  0  0  0  0  0  0  0  0  0  0
    3.3957   -0.4829   -1.6978 H   0  0  0  0  0  0  0  0  0  0  0  0
    1.8353    2.0485   -0.9391 H   0  0  0  0  0  0  0  0  0  0  0  0
    1.5878    1.0841   -2.4068 H   0  0  0  0  0  0  0  0  0  0  0  0
   -0.3398    2.7411   -0.4248 H   0  0  0  0  0  0  0  0  0  0  0  0
   -2.9776    2.5435   -0.0173 H   0  0  0  0  0  0  0  0  0  0  0  0
   -5.0190    1.7937   -1.4378 H   0  0  0  0  0  0  0  0  0  0  0  0
   -7.0978    2.9939   -0.8320 H   0  0  0  0  0  0  0  0  0  0  0  0
  1  2  2  0
  2  3  1  0
  3  4  2  0
  4  5  1  0
  5  6  2  0
  6  7  1  0
  7  8  2  0
  8  9  1  0
  9 10  2  0
 10 11  1  0
 11 12  2  0
 12 13  1  0
 13 14  1  0
 14 15  1  0
 15 16  1  0
 16 17  1  0
 17 18  1  0
 18 19  1  0
 19 20  2  0
 20 21  1  0
 21 22  2  0
 22 23  1  0
 23 24  2  0
 18 25  1  0
 25 26  1  0
 14 27  2  0
 27 28  1  0
 28 29  2  0
  4 30  1  0
 30 31  2  0
 31  1  1  0
 29  5  1  0
 12  7  1  0
 29 13  1  0
 26 15  1  0
 24 19  1  0
  1 32  1  0
  2 33  1  0
  3 34  1  0
  8 35  1  0
  9 36  1  0
 10 37  1  0
 11 38  1  0
 16 39  1  0
 16 40  1  0
 17 41  1  0
 17 42  1  0
 20 43  1  0
 21 44  1  0
 22 45  1  0
 23 46  1  0
 24 47  1  0
 25 48  1  0
 25 49  1  0
 26 50  1  0
 26 51  1  0
 27 52  1  0
 28 53  1  0
 30 54  1  0
 31 55  1  0
M  END
$$$$
