
     RDKit          3D

 56 58  0  0  0  0  0  0  0  0999 V2000
   -1.8091   -3.5820   -2.4154 C   0  0  0  0  0  0  0  0  0  0  0  0
   -2.2973   -2.4781   -1.6664 O   0  0  0  0  0  0  0  0  0  0  0  0
   -1.4102   -1.4769   -1.3534 C   0  0  0  0  0  0  0  0  0  0  0  0
   -0.0471   -1.4973   -1.6772 C   0  0  0  0  0  0  0  0  0  0  0  0
    0.7957   -0.4387   -1.3106 C   0  0  0  0  0  0  0  0  0  0  0  0
    2.2119   -0.4962   -1.6946 C   0  0  0  0  0  0  0  0  0  0  0  0
    3.2158   -0.0782   -0.9091 C   0  0  0  0  0  0  0  0  0  0  0  0
    4.6192   -0.2034   -1.3863 C   0  0  0  0  0  0  0  0  0  0  0  0
    4.9194   -0.6567   -2.4837 O   0  0  0  0  0  0  0  0  0  0  0  0
    5.6718    0.2842   -0.4738 C   0  0  0  0  0  0  0  0  0  0  0  0
    5.8923   -0.3372    0.7732 C   0  0  0  0  0  0  0  0  0  0  0  0
    5.0625   -1.3784    1.0956 O   0  0  0  0  0  0  0  0  0  0  0  0
    5.3652   -2.1332    2.2629 C   0  0  0  0  0  0  0  0  0  0  0  0
    6.9245    0.1332    1.6026 C   0  0  0  0  0  0  0  0  0  0  0  0
    7.7362    1.1975    1.1986 C   0  0  0  0  0  0  0  0  0  0  0  0
    7.5015    1.7858   -0.0344 C   0  0  0  0  0  0  0  0  0  0  0  0
    8.2898    2.8530   -0.4587 O   0  0  0  0  0  0  0  0  0  0  0  0
    7.8163    3.2502   -1.7052 C   0  0  0  0  0  0  0  0  0  0  0  0
    8.3099    4.1802   -2.3286 O   0  0  0  0  0  0  0  0  0  0  0  0
    6.4418    2.3344   -2.3247 S   0  0  0  0  0  0  0  0  0  0  0  0
    6.4835    1.3436   -0.8721 C   0  0  0  0  0  0  0  0  0  0  0  0
    0.2509    0.6590   -0.6382 C   0  0  0  0  0  0  0  0  0  0  0  0
   -1.1081    0.6900   -0.3097 C   0  0  0  0  0  0  0  0  0  0  0  0
   -1.9446   -0.3741   -0.6581 C   0  0  0  0  0  0  0  0  0  0  0  0
   -3.2866   -0.4320   -0.3768 O   0  0  0  0  0  0  0  0  0  0  0  0
   -3.8662    0.6510    0.3469 C   0  0  0  0  0  0  0  0  0  0  0  0
   -5.3461    0.3331    0.5551 C   0  0  0  0  0  0  0  0  0  0  0  0
   -6.0408    1.4504    1.3398 C   0  0  0  0  0  0  0  0  0  0  0  0
   -7.4745    1.2775    1.6112 N   0  0  0  0  0  0  0  0  0  0  0  0
   -8.2824    1.2548    0.3945 C   0  0  0  0  0  0  0  0  0  0  0  0
   -7.7577    0.1130    2.4461 C   0  0  0  0  0  0  0  0  0  0  0  0
   -1.0507   -4.1358   -1.8524 H   0  0  0  0  0  0  0  0  0  0  0  0
   -2.6485   -4.2603   -2.5966 H   0  0  0  0  0  0  0  0  0  0  0  0
   -1.4256   -3.2614   -3.3896 H   0  0  0  0  0  0  0  0  0  0  0  0
    0.3861   -2.3382   -2.2097 H   0  0  0  0  0  0  0  0  0  0  0  0
    2.4249   -0.9339   -2.6691 H   0  0  0  0  0  0  0  0  0  0  0  0
    3.0495    0.3359    0.0777 H   0  0  0  0  0  0  0  0  0  0  0  0
    6.3717   -2.5610    2.2092 H   0  0  0  0  0  0  0  0  0  0  0  0
    4.6528   -2.9619    2.3184 H   0  0  0  0  0  0  0  0  0  0  0  0
    5.2398   -1.5258    3.1647 H   0  0  0  0  0  0  0  0  0  0  0  0
    7.1244   -0.3115    2.5735 H   0  0  0  0  0  0  0  0  0  0  0  0
    8.5359    1.5568    1.8404 H   0  0  0  0  0  0  0  0  0  0  0  0
    0.8713    1.5116   -0.3727 H   0  0  0  0  0  0  0  0  0  0  0  0
   -1.4818    1.5649    0.2113 H   0  0  0  0  0  0  0  0  0  0  0  0
   -3.3755    0.7575    1.3217 H   0  0  0  0  0  0  0  0  0  0  0  0
   -3.7693    1.5801   -0.2273 H   0  0  0  0  0  0  0  0  0  0  0  0
   -5.4295   -0.6264    1.0790 H   0  0  0  0  0  0  0  0  0  0  0  0
   -5.8163    0.1878   -0.4245 H   0  0  0  0  0  0  0  0  0  0  0  0
   -5.9036    2.4008    0.8072 H   0  0  0  0  0  0  0  0  0  0  0  0
   -5.5247    1.5868    2.2994 H   0  0  0  0  0  0  0  0  0  0  0  0
   -8.0843    2.1400   -0.2200 H   0  0  0  0  0  0  0  0  0  0  0  0
   -8.1039    0.3624   -0.2149 H   0  0  0  0  0  0  0  0  0  0  0  0
   -9.3486    1.2824    0.6469 H   0  0  0  0  0  0  0  0  0  0  0  0
   -8.8090    0.1151    2.7559 H   0  0  0  0  0  0  0  0  0  0  0  0
   -7.1616    0.1390    3.3653 H   0  0  0  0  0  0  0  0  0  0  0  0
   -7.5608   -0.8337    1.9317 H   0  0  0  0  0  0  0  0  0  0  0  0
  1  2  1  0
  2  3  1  0
  3  4  2  0
  4  5  1  0
  5  6  1  0
  6  7  2  0
  7  8  1  0
  8  9  2  0
  8 10  1  0
 10 11  2  0
 11 12  1  0
 12 13  1  0
 11 14  1  0
 14 15  2  0
 15 16  1  0
 16 17  1  0
 17 18  1  0
 18 19  2  0
 18 20  1  0
 20 21  1  0
  5 22  2  0
 22 23  1  0
 23 24  2  0
 24 25  1  0
 25 26  1  0
 26 27  1  0
 27 28  1  0
 28 29  1  0
 29 30  1  0
 29 31  1  0
 24  3  1  0
 21 10  1  0
 21 16  2  0
  1 32  1  0
  1 33  1  0
  1 34  1  0
  4 35  1  0
  6 36  1  0
  7 37  1  0
 13 38  1  0
 13 39  1  0
 13 40  1  0
 14 41  1  0
 15 42  1  0
 22 43  1  0
 23 44  1  0
 26 45  1  0
 26 46  1  0
 27 47  1  0
 27 48  1  0
 28 49  1  0
 28 50  1  0
 30 51  1  0
 30 52  1  0
 30 53  1  0
 31 54  1  0
 31 55  1  0
 31 56  1  0
M  END
$$$$
