
     RDKit          3D

 21 21  0  0  0  0  0  0  0  0999 V2000
   -3.4071    3.3503   -0.0861 C   0  0  0  0  0  3  0  0  0  0  0  0
   -2.7353    2.4262   -0.3408 N   0  0  0  0  0  4  0  0  0  0  0  0
   -1.9031    1.2747   -0.6632 C   0  0  0  0  0  0  0  0  0  0  0  0
   -0.9634    0.7866    0.1495 C   0  0  0  0  0  0  0  0  0  0  0  0
   -0.3180   -0.3506   -0.4536 C   0  0  0  0  0  0  0  0  0  0  0  0
    0.6753   -1.0984    0.0484 C   0  0  0  0  0  0  0  0  0  0  0  0
    1.3713   -0.9285    1.3714 C   0  0  0  0  0  0  0  0  0  0  0  0
    2.8523   -0.6658    1.1839 C   0  0  0  0  0  0  0  0  0  0  0  0
    3.5121   -0.7793    0.1642 O   0  0  0  0  0  0  0  0  0  0  0  0
    3.4478   -0.2999    2.3390 O   0  0  0  0  0  0  0  0  0  0  0  0
   -0.9588   -0.5771   -1.8045 C   0  0  0  0  0  0  0  0  0  0  0  0
   -2.0187    0.5222   -1.9431 C   0  0  0  0  0  0  0  0  0  0  0  0
   -0.7270    1.1948    1.1208 H   0  0  0  0  0  0  0  0  0  0  0  0
    1.0478   -1.9248   -0.5582 H   0  0  0  0  0  0  0  0  0  0  0  0
    1.2605   -1.8499    1.9529 H   0  0  0  0  0  0  0  0  0  0  0  0
    0.9487   -0.1010    1.9481 H   0  0  0  0  0  0  0  0  0  0  0  0
    4.3874   -0.1724    2.0890 H   0  0  0  0  0  0  0  0  0  0  0  0
   -0.2187   -0.5000   -2.6092 H   0  0  0  0  0  0  0  0  0  0  0  0
   -1.4254   -1.5675   -1.8561 H   0  0  0  0  0  0  0  0  0  0  0  0
   -3.0190    0.0934   -2.0630 H   0  0  0  0  0  0  0  0  0  0  0  0
   -1.8089    1.1671   -2.8027 H   0  0  0  0  0  0  0  0  0  0  0  0
  1  2  3  0
  2  3  1  0
  3  4  2  0
  4  5  1  0
  5  6  2  3
  6  7  1  0
  7  8  1  0
  8  9  2  0
  8 10  1  0
  5 11  1  0
 11 12  1  0
 12  3  1  0
  4 13  1  0
  6 14  1  0
  7 15  1  0
  7 16  1  0
 10 17  1  0
 11 18  1  0
 11 19  1  0
 12 20  1  0
 12 21  1  0
M  CHG  2   1  -1   2   1
M  END
$$$$
