
     RDKit          3D

 42 44  0  0  0  0  0  0  0  0999 V2000
   -5.6538   -1.3105   -1.4845 C   0  0  0  0  0  0  0  0  0  0  0  0
   -5.4067    0.0881   -1.4212 O   0  0  0  0  0  0  0  0  0  0  0  0
   -4.2980    0.5020   -0.7350 C   0  0  0  0  0  0  0  0  0  0  0  0
   -4.1165    1.8843   -0.7111 C   0  0  0  0  0  0  0  0  0  0  0  0
   -3.0280    2.4355   -0.0442 C   0  0  0  0  0  0  0  0  0  0  0  0
   -2.9476    3.8040   -0.0335 O   0  0  0  0  0  0  0  0  0  0  0  0
   -2.0794    1.6119    0.5783 C   0  0  0  0  0  0  0  0  0  0  0  0
   -0.9162    2.2673    1.2214 C   0  0  0  0  0  0  0  0  0  0  0  0
   -1.0964    3.3191    1.8365 O   0  0  0  0  0  0  0  0  0  0  0  0
    0.4659    1.7447    1.0690 C   0  0  0  0  0  0  0  0  0  0  0  0
    0.8983    1.0673   -0.0059 C   0  0  0  0  0  0  0  0  0  0  0  0
    2.2589    0.5710   -0.1726 C   0  0  0  0  0  0  0  0  0  0  0  0
    2.4624   -0.4637   -1.0271 C   0  0  0  0  0  0  0  0  0  0  0  0
    3.8670   -0.8953   -1.2975 C   0  0  2  0  0  0  0  0  0  0  0  0
    4.0927   -2.2478   -1.6699 O   0  0  0  0  0  0  0  0  0  0  0  0
    5.5002   -2.3961   -1.3515 C   0  0  0  0  0  0  0  0  0  0  0  0
    5.9362   -1.3186   -0.4848 O   0  0  0  0  0  0  0  0  0  0  0  0
    4.6926   -0.8104   -0.0265 C   0  0  1  0  0  0  0  0  0  0  0  0
    4.6437    0.5870    0.4901 C   0  0  0  0  0  0  0  0  0  0  0  0
    3.4555    1.2232    0.4141 C   0  0  0  0  0  0  0  0  0  0  0  0
   -2.2762    0.2186    0.5968 C   0  0  0  0  0  0  0  0  0  0  0  0
   -1.3757   -0.5255    1.3143 O   0  0  0  0  0  0  0  0  0  0  0  0
   -1.4898   -1.9423    1.2754 C   0  0  0  0  0  0  0  0  0  0  0  0
   -3.3852   -0.3260   -0.0719 C   0  0  0  0  0  0  0  0  0  0  0  0
   -6.5632   -1.4633   -2.0736 H   0  0  0  0  0  0  0  0  0  0  0  0
   -4.8363   -1.8332   -1.9918 H   0  0  0  0  0  0  0  0  0  0  0  0
   -5.8299   -1.7248   -0.4864 H   0  0  0  0  0  0  0  0  0  0  0  0
   -4.8336    2.5364   -1.2036 H   0  0  0  0  0  0  0  0  0  0  0  0
   -2.3275    4.0645    0.6841 H   0  0  0  0  0  0  0  0  0  0  0  0
    1.1279    2.0127    1.8856 H   0  0  0  0  0  0  0  0  0  0  0  0
    0.2120    0.8474   -0.8214 H   0  0  0  0  0  0  0  0  0  0  0  0
    1.6596   -0.9584   -1.5610 H   0  0  0  0  0  0  0  0  0  0  0  0
    4.2739   -0.2738   -2.1099 H   0  0  0  0  0  0  0  0  0  0  0  0
    6.0875   -2.3691   -2.2744 H   0  0  0  0  0  0  0  0  0  0  0  0
    5.6501   -3.3547   -0.8457 H   0  0  0  0  0  0  0  0  0  0  0  0
    4.3388   -1.4951    0.7589 H   0  0  0  0  0  0  0  0  0  0  0  0
    5.5183    1.0367    0.9426 H   0  0  0  0  0  0  0  0  0  0  0  0
    3.3507    2.2349    0.7968 H   0  0  0  0  0  0  0  0  0  0  0  0
   -2.4204   -2.2742    1.7467 H   0  0  0  0  0  0  0  0  0  0  0  0
   -0.6579   -2.3597    1.8509 H   0  0  0  0  0  0  0  0  0  0  0  0
   -1.4064   -2.3179    0.2502 H   0  0  0  0  0  0  0  0  0  0  0  0
   -3.5474   -1.3961   -0.0661 H   0  0  0  0  0  0  0  0  0  0  0  0
  1  2  1  0
  2  3  1  0
  3  4  2  0
  4  5  1  0
  5  6  1  0
  5  7  2  0
  7  8  1  0
  8  9  2  0
  8 10  1  0
 10 11  2  0
 11 12  1  0
 12 13  2  0
 13 14  1  0
 14 15  1  0
 15 16  1  0
 16 17  1  0
 17 18  1  0
 18 19  1  0
 19 20  2  0
  7 21  1  0
 21 22  1  0
 22 23  1  0
 21 24  2  0
 24  3  1  0
 20 12  1  0
 18 14  1  0
  1 25  1  0
  1 26  1  0
  1 27  1  0
  4 28  1  0
  6 29  1  0
 10 30  1  0
 11 31  1  0
 13 32  1  0
 14 33  1  6
 16 34  1  0
 16 35  1  0
 18 36  1  1
 19 37  1  0
 20 38  1  0
 23 39  1  0
 23 40  1  0
 23 41  1  0
 24 42  1  0
M  END
$$$$
