
     RDKit          3D

 45 46  0  0  0  0  0  0  0  0999 V2000
    6.2680   -0.1342    2.7257 C   0  0  0  0  0  0  0  0  0  0  0  0
    6.3296    0.2764    1.3659 O   0  0  0  0  0  0  0  0  0  0  0  0
    5.2350    0.0227    0.5871 C   0  0  0  0  0  0  0  0  0  0  0  0
    4.0563   -0.5965    1.0068 C   0  0  0  0  0  0  0  0  0  0  0  0
    3.0017   -0.7940    0.1052 C   0  0  0  0  0  0  0  0  0  0  0  0
    3.1144   -0.3618   -1.2228 C   0  0  0  0  0  0  0  0  0  0  0  0
    2.0150   -0.5517   -2.2011 C   0  0  0  0  0  0  0  0  0  0  0  0
    2.2870   -0.6831   -3.3937 O   0  0  0  0  0  0  0  0  0  0  0  0
    0.5933   -0.5712   -1.7754 C   0  0  0  0  0  0  0  0  0  0  0  0
    0.0938    0.2463   -0.8357 C   0  0  0  0  0  0  0  0  0  0  0  0
   -1.3244    0.2600   -0.4455 C   0  0  0  0  0  0  0  0  0  0  0  0
   -1.6447    0.4151    0.9119 C   0  0  0  0  0  0  0  0  0  0  0  0
   -2.9772    0.4526    1.3301 C   0  0  0  0  0  0  0  0  0  0  0  0
   -3.3842    0.5856    2.6326 O   0  0  0  0  0  0  0  0  0  0  0  0
   -2.4065    0.9813    3.5845 C   0  0  0  0  0  0  0  0  0  0  0  0
   -3.9935    0.3227    0.3694 C   0  0  0  0  0  0  0  0  0  0  0  0
   -5.3102    0.3979    0.7690 O   0  0  0  0  0  0  0  0  0  0  0  0
   -5.8071   -0.9109    1.0425 C   0  0  0  0  0  0  0  0  0  0  0  0
   -3.6942    0.2084   -0.9983 C   0  0  0  0  0  0  0  0  0  0  0  0
   -4.7656    0.1241   -1.8497 O   0  0  0  0  0  0  0  0  0  0  0  0
   -4.5029    0.2021   -3.2440 C   0  0  0  0  0  0  0  0  0  0  0  0
   -2.3547    0.1748   -1.3950 C   0  0  0  0  0  0  0  0  0  0  0  0
    4.3144    0.2240   -1.6446 C   0  0  0  0  0  0  0  0  0  0  0  0
    4.5355    0.6214   -2.9369 O   0  0  0  0  0  0  0  0  0  0  0  0
    5.3581    0.4285   -0.7438 C   0  0  0  0  0  0  0  0  0  0  0  0
    5.4653    0.3860    3.2588 H   0  0  0  0  0  0  0  0  0  0  0  0
    6.1564   -1.2206    2.8051 H   0  0  0  0  0  0  0  0  0  0  0  0
    7.2150    0.1390    3.2010 H   0  0  0  0  0  0  0  0  0  0  0  0
    3.9278   -0.9439    2.0271 H   0  0  0  0  0  0  0  0  0  0  0  0
    2.1075   -1.3026    0.4565 H   0  0  0  0  0  0  0  0  0  0  0  0
   -0.0322   -1.2459   -2.3512 H   0  0  0  0  0  0  0  0  0  0  0  0
    0.7285    0.9552   -0.3083 H   0  0  0  0  0  0  0  0  0  0  0  0
   -0.8363    0.4918    1.6320 H   0  0  0  0  0  0  0  0  0  0  0  0
   -1.6786    0.1810    3.7521 H   0  0  0  0  0  0  0  0  0  0  0  0
   -1.9106    1.9110    3.2859 H   0  0  0  0  0  0  0  0  0  0  0  0
   -2.9193    1.1674    4.5331 H   0  0  0  0  0  0  0  0  0  0  0  0
   -6.8490   -0.8129    1.3620 H   0  0  0  0  0  0  0  0  0  0  0  0
   -5.2488   -1.3887    1.8549 H   0  0  0  0  0  0  0  0  0  0  0  0
   -5.7869   -1.5418    0.1472 H   0  0  0  0  0  0  0  0  0  0  0  0
   -3.9485   -0.6771   -3.5877 H   0  0  0  0  0  0  0  0  0  0  0  0
   -3.9760    1.1277   -3.4989 H   0  0  0  0  0  0  0  0  0  0  0  0
   -5.4649    0.2126   -3.7653 H   0  0  0  0  0  0  0  0  0  0  0  0
   -2.0929    0.0913   -2.4447 H   0  0  0  0  0  0  0  0  0  0  0  0
    3.8283    0.2332   -3.4992 H   0  0  0  0  0  0  0  0  0  0  0  0
    6.2782    0.8968   -1.0850 H   0  0  0  0  0  0  0  0  0  0  0  0
  1  2  1  0
  2  3  1  0
  3  4  2  0
  4  5  1  0
  5  6  2  0
  6  7  1  0
  7  8  2  0
  7  9  1  0
  9 10  2  0
 10 11  1  0
 11 12  2  0
 12 13  1  0
 13 14  1  0
 14 15  1  0
 13 16  2  0
 16 17  1  0
 17 18  1  0
 16 19  1  0
 19 20  1  0
 20 21  1  0
 19 22  2  0
  6 23  1  0
 23 24  1  0
 23 25  2  0
 25  3  1  0
 22 11  1  0
  1 26  1  0
  1 27  1  0
  1 28  1  0
  4 29  1  0
  5 30  1  0
  9 31  1  0
 10 32  1  0
 12 33  1  0
 15 34  1  0
 15 35  1  0
 15 36  1  0
 18 37  1  0
 18 38  1  0
 18 39  1  0
 21 40  1  0
 21 41  1  0
 21 42  1  0
 22 43  1  0
 24 44  1  0
 25 45  1  0
M  END
$$$$
