
     RDKit          3D

 45 46  0  0  0  0  0  0  0  0999 V2000
    7.1167    0.7453   -1.9752 C   0  0  0  0  0  0  0  0  0  0  0  0
    5.8512    0.1789   -2.2954 O   0  0  0  0  0  0  0  0  0  0  0  0
    5.0144   -0.0915   -1.2482 C   0  0  0  0  0  0  0  0  0  0  0  0
    3.7899   -0.6589   -1.6133 C   0  0  0  0  0  0  0  0  0  0  0  0
    2.8325   -0.9827   -0.6467 C   0  0  0  0  0  0  0  0  0  0  0  0
    3.0893   -0.7255    0.7047 C   0  0  0  0  0  0  0  0  0  0  0  0
    2.0989   -1.0455    1.7626 C   0  0  0  0  0  0  0  0  0  0  0  0
    2.4960   -1.3116    2.8963 O   0  0  0  0  0  0  0  0  0  0  0  0
    0.6403   -1.0347    1.4890 C   0  0  0  0  0  0  0  0  0  0  0  0
    0.0426   -0.1153    0.7155 C   0  0  0  0  0  0  0  0  0  0  0  0
   -1.4084   -0.0772    0.4783 C   0  0  0  0  0  0  0  0  0  0  0  0
   -2.3335   -0.2900    1.5122 C   0  0  0  0  0  0  0  0  0  0  0  0
   -3.7070   -0.2249    1.2641 C   0  0  0  0  0  0  0  0  0  0  0  0
   -4.6836   -0.4247    2.2054 O   0  0  0  0  0  0  0  0  0  0  0  0
   -4.2774   -0.8964    3.4827 C   0  0  0  0  0  0  0  0  0  0  0  0
   -4.1474    0.0876   -0.0329 C   0  0  0  0  0  0  0  0  0  0  0  0
   -5.4995    0.1119   -0.2988 O   0  0  0  0  0  0  0  0  0  0  0  0
   -6.0079    1.4296   -0.0984 C   0  0  0  0  0  0  0  0  0  0  0  0
   -3.2376    0.3014   -1.0819 C   0  0  0  0  0  0  0  0  0  0  0  0
   -3.7805    0.5850   -2.3084 O   0  0  0  0  0  0  0  0  0  0  0  0
   -2.8973    0.6488   -3.4192 C   0  0  0  0  0  0  0  0  0  0  0  0
   -1.8688    0.2308   -0.8112 C   0  0  0  0  0  0  0  0  0  0  0  0
    4.3340   -0.1911    1.0675 C   0  0  0  0  0  0  0  0  0  0  0  0
    4.6936    0.0370    2.3711 O   0  0  0  0  0  0  0  0  0  0  0  0
    5.2856    0.1382    0.0999 C   0  0  0  0  0  0  0  0  0  0  0  0
    7.7087    0.0636   -1.3556 H   0  0  0  0  0  0  0  0  0  0  0  0
    7.0014    1.7212   -1.4920 H   0  0  0  0  0  0  0  0  0  0  0  0
    7.6599    0.9000   -2.9124 H   0  0  0  0  0  0  0  0  0  0  0  0
    3.5846   -0.8571   -2.6634 H   0  0  0  0  0  0  0  0  0  0  0  0
    1.9047   -1.4469   -0.9695 H   0  0  0  0  0  0  0  0  0  0  0  0
    0.0804   -1.7855    2.0376 H   0  0  0  0  0  0  0  0  0  0  0  0
    0.6165    0.6623    0.2159 H   0  0  0  0  0  0  0  0  0  0  0  0
   -1.9631   -0.4911    2.5121 H   0  0  0  0  0  0  0  0  0  0  0  0
   -5.1799   -1.0832    4.0727 H   0  0  0  0  0  0  0  0  0  0  0  0
   -3.6868   -0.1402    4.0098 H   0  0  0  0  0  0  0  0  0  0  0  0
   -3.7305   -1.8419    3.4028 H   0  0  0  0  0  0  0  0  0  0  0  0
   -7.0792    1.4117   -0.3203 H   0  0  0  0  0  0  0  0  0  0  0  0
   -5.5351    2.1483   -0.7766 H   0  0  0  0  0  0  0  0  0  0  0  0
   -5.8844    1.7525    0.9411 H   0  0  0  0  0  0  0  0  0  0  0  0
   -3.5016    0.7997   -4.3189 H   0  0  0  0  0  0  0  0  0  0  0  0
   -2.2163    1.5014   -3.3298 H   0  0  0  0  0  0  0  0  0  0  0  0
   -2.3447   -0.2885   -3.5427 H   0  0  0  0  0  0  0  0  0  0  0  0
   -1.1389    0.4078   -1.5948 H   0  0  0  0  0  0  0  0  0  0  0  0
    4.0409   -0.4192    2.9492 H   0  0  0  0  0  0  0  0  0  0  0  0
    6.2271    0.5605    0.4347 H   0  0  0  0  0  0  0  0  0  0  0  0
  1  2  1  0
  2  3  1  0
  3  4  2  0
  4  5  1  0
  5  6  2  0
  6  7  1  0
  7  8  2  0
  7  9  1  0
  9 10  2  0
 10 11  1  0
 11 12  2  0
 12 13  1  0
 13 14  1  0
 14 15  1  0
 13 16  2  0
 16 17  1  0
 17 18  1  0
 16 19  1  0
 19 20  1  0
 20 21  1  0
 19 22  2  0
  6 23  1  0
 23 24  1  0
 23 25  2  0
 25  3  1  0
 22 11  1  0
  1 26  1  0
  1 27  1  0
  1 28  1  0
  4 29  1  0
  5 30  1  0
  9 31  1  0
 10 32  1  0
 12 33  1  0
 15 34  1  0
 15 35  1  0
 15 36  1  0
 18 37  1  0
 18 38  1  0
 18 39  1  0
 21 40  1  0
 21 41  1  0
 21 42  1  0
 22 43  1  0
 24 44  1  0
 25 45  1  0
M  END
$$$$
