
     RDKit          3D

 45 46  0  0  0  0  0  0  0  0999 V2000
    7.0504   -2.0342   -1.9579 C   0  0  0  0  0  0  0  0  0  0  0  0
    6.9946   -1.1123   -0.8769 O   0  0  0  0  0  0  0  0  0  0  0  0
    5.7687   -0.5992   -0.5571 C   0  0  0  0  0  0  0  0  0  0  0  0
    4.5664   -0.8823   -1.2057 C   0  0  0  0  0  0  0  0  0  0  0  0
    3.3707   -0.2887   -0.7751 C   0  0  0  0  0  0  0  0  0  0  0  0
    3.3642    0.5904    0.3167 C   0  0  0  0  0  0  0  0  0  0  0  0
    2.1157    1.2324    0.8125 C   0  0  0  0  0  0  0  0  0  0  0  0
    2.1984    2.2539    1.4928 O   0  0  0  0  0  0  0  0  0  0  0  0
    0.8033    0.5973    0.5169 C   0  0  0  0  0  0  0  0  0  0  0  0
   -0.3273    1.2544    0.8183 C   0  0  0  0  0  0  0  0  0  0  0  0
   -1.6642    0.6888    0.5994 C   0  0  0  0  0  0  0  0  0  0  0  0
   -2.5999    0.7504    1.6423 C   0  0  0  0  0  0  0  0  0  0  0  0
   -3.8877    0.2370    1.4735 C   0  0  0  0  0  0  0  0  0  0  0  0
   -4.8647    0.2390    2.4354 O   0  0  0  0  0  0  0  0  0  0  0  0
   -4.4940    0.6476    3.7448 C   0  0  0  0  0  0  0  0  0  0  0  0
   -4.2391   -0.3140    0.2294 C   0  0  0  0  0  0  0  0  0  0  0  0
   -5.4929   -0.8619    0.0632 O   0  0  0  0  0  0  0  0  0  0  0  0
   -6.3965    0.1347   -0.4113 C   0  0  0  0  0  0  0  0  0  0  0  0
   -3.3145   -0.3856   -0.8268 C   0  0  0  0  0  0  0  0  0  0  0  0
   -3.7659   -0.9544   -1.9899 O   0  0  0  0  0  0  0  0  0  0  0  0
   -2.8323   -1.1222   -3.0468 C   0  0  0  0  0  0  0  0  0  0  0  0
   -2.0304    0.1296   -0.6343 C   0  0  0  0  0  0  0  0  0  0  0  0
    4.5833    0.8887    0.9430 C   0  0  0  0  0  0  0  0  0  0  0  0
    4.6924    1.7649    1.9917 O   0  0  0  0  0  0  0  0  0  0  0  0
    5.7696    0.2921    0.5169 C   0  0  0  0  0  0  0  0  0  0  0  0
    6.7408   -1.5611   -2.8956 H   0  0  0  0  0  0  0  0  0  0  0  0
    6.4506   -2.9259   -1.7478 H   0  0  0  0  0  0  0  0  0  0  0  0
    8.0910   -2.3523   -2.0731 H   0  0  0  0  0  0  0  0  0  0  0  0
    4.5244   -1.5570   -2.0552 H   0  0  0  0  0  0  0  0  0  0  0  0
    2.4646   -0.5178   -1.3278 H   0  0  0  0  0  0  0  0  0  0  0  0
    0.7823   -0.4028    0.1049 H   0  0  0  0  0  0  0  0  0  0  0  0
   -0.2957    2.2418    1.2767 H   0  0  0  0  0  0  0  0  0  0  0  0
   -2.2961    1.1983    2.5836 H   0  0  0  0  0  0  0  0  0  0  0  0
   -4.2253    1.7087    3.7631 H   0  0  0  0  0  0  0  0  0  0  0  0
   -5.3638    0.5143    4.3953 H   0  0  0  0  0  0  0  0  0  0  0  0
   -3.6839    0.0264    4.1411 H   0  0  0  0  0  0  0  0  0  0  0  0
   -6.0824    0.5290   -1.3839 H   0  0  0  0  0  0  0  0  0  0  0  0
   -7.3759   -0.3360   -0.5394 H   0  0  0  0  0  0  0  0  0  0  0  0
   -6.5070    0.9514    0.3103 H   0  0  0  0  0  0  0  0  0  0  0  0
   -3.3445   -1.6329   -3.8679 H   0  0  0  0  0  0  0  0  0  0  0  0
   -2.4859   -0.1539   -3.4225 H   0  0  0  0  0  0  0  0  0  0  0  0
   -1.9909   -1.7509   -2.7373 H   0  0  0  0  0  0  0  0  0  0  0  0
   -1.3017    0.1187   -1.4376 H   0  0  0  0  0  0  0  0  0  0  0  0
    3.8291    2.2252    2.0945 H   0  0  0  0  0  0  0  0  0  0  0  0
    6.7021    0.5302    1.0231 H   0  0  0  0  0  0  0  0  0  0  0  0
  1  2  1  0
  2  3  1  0
  3  4  2  0
  4  5  1  0
  5  6  2  0
  6  7  1  0
  7  8  2  0
  7  9  1  0
  9 10  2  0
 10 11  1  0
 11 12  2  0
 12 13  1  0
 13 14  1  0
 14 15  1  0
 13 16  2  0
 16 17  1  0
 17 18  1  0
 16 19  1  0
 19 20  1  0
 20 21  1  0
 19 22  2  0
  6 23  1  0
 23 24  1  0
 23 25  2  0
 25  3  1  0
 22 11  1  0
  1 26  1  0
  1 27  1  0
  1 28  1  0
  4 29  1  0
  5 30  1  0
  9 31  1  0
 10 32  1  0
 12 33  1  0
 15 34  1  0
 15 35  1  0
 15 36  1  0
 18 37  1  0
 18 38  1  0
 18 39  1  0
 21 40  1  0
 21 41  1  0
 21 42  1  0
 22 43  1  0
 24 44  1  0
 25 45  1  0
M  END
$$$$
