
     RDKit          3D

 55 60  0  0  0  0  0  0  0  0999 V2000
   -7.7487    1.2871    0.8349 C   0  0  0  0  0  0  0  0  0  0  0  0
   -6.6539    1.5718    1.6524 C   0  0  0  0  0  0  0  0  0  0  0  0
   -5.3897    1.0783    1.3247 C   0  0  0  0  0  0  0  0  0  0  0  0
   -5.2206    0.3083    0.1685 C   0  0  0  0  0  0  0  0  0  0  0  0
   -3.8918   -0.2453   -0.1996 C   0  0  0  0  0  0  0  0  0  0  0  0
   -3.8145   -1.5009   -0.5278 N   0  0  0  0  0  0  0  0  0  0  0  0
   -2.5630   -2.0461   -0.8752 C   0  0  0  0  0  0  0  0  0  0  0  0
   -2.5279   -3.3872   -1.2684 C   0  0  0  0  0  0  0  0  0  0  0  0
   -1.3286   -3.9890   -1.6516 C   0  0  0  0  0  0  0  0  0  0  0  0
   -0.1505   -3.2457   -1.6572 C   0  0  0  0  0  0  0  0  0  0  0  0
   -0.1651   -1.9049   -1.2669 C   0  0  0  0  0  0  0  0  0  0  0  0
   -1.3632   -1.3137   -0.8539 C   0  0  0  0  0  0  0  0  0  0  0  0
   -1.4666    0.0396   -0.4445 N   0  0  0  0  0  0  0  0  0  0  0  0
   -0.4961    1.0227   -0.2382 C   0  0  0  0  0  0  0  0  0  0  0  0
    0.8529    0.7679   -0.1968 N   0  0  0  0  0  0  0  0  0  0  0  0
    1.7634    1.8560   -0.6381 C   0  0  0  0  0  0  0  0  0  0  0  0
    3.2046    1.3258   -0.8076 C   0  0  0  0  0  0  0  0  0  0  0  0
    3.6959    0.7226    0.4539 N   0  0  0  0  0  0  0  0  0  0  0  0
    5.0563    0.3794    0.5305 C   0  0  0  0  0  0  0  0  0  0  0  0
    5.8988    0.2830   -0.5869 C   0  0  0  0  0  0  0  0  0  0  0  0
    7.2519   -0.0547   -0.4557 C   0  0  0  0  0  0  0  0  0  0  0  0
    7.7955   -0.2937    0.8023 C   0  0  0  0  0  0  0  0  0  0  0  0
    6.9870   -0.1911    1.9284 C   0  0  0  0  0  0  0  0  0  0  0  0
    5.6362    0.1442    1.7896 C   0  0  0  0  0  0  0  0  0  0  0  0
    2.7892   -0.3473    0.9504 C   0  0  0  0  0  0  0  0  0  0  0  0
    1.3363    0.1670    1.0818 C   0  0  0  0  0  0  0  0  0  0  0  0
   -1.1640    2.2243   -0.0861 C   0  0  0  0  0  0  0  0  0  0  0  0
   -2.5489    1.9574   -0.0540 C   0  0  0  0  0  0  0  0  0  0  0  0
   -2.7129    0.5936   -0.1971 C   0  0  0  0  0  0  0  0  0  0  0  0
   -6.3242    0.0055   -0.6377 C   0  0  0  0  0  0  0  0  0  0  0  0
   -7.5861    0.5009   -0.3066 C   0  0  0  0  0  0  0  0  0  0  0  0
   -8.7334    1.6690    1.0937 H   0  0  0  0  0  0  0  0  0  0  0  0
   -6.7879    2.1701    2.5503 H   0  0  0  0  0  0  0  0  0  0  0  0
   -4.5505    1.2809    1.9838 H   0  0  0  0  0  0  0  0  0  0  0  0
   -3.4503   -3.9618   -1.2797 H   0  0  0  0  0  0  0  0  0  0  0  0
   -1.3190   -5.0316   -1.9576 H   0  0  0  0  0  0  0  0  0  0  0  0
    0.7810   -3.7067   -1.9764 H   0  0  0  0  0  0  0  0  0  0  0  0
    0.7614   -1.3447   -1.3224 H   0  0  0  0  0  0  0  0  0  0  0  0
    1.4260    2.2590   -1.6006 H   0  0  0  0  0  0  0  0  0  0  0  0
    1.7577    2.6720    0.0959 H   0  0  0  0  0  0  0  0  0  0  0  0
    3.2161    0.5793   -1.6124 H   0  0  0  0  0  0  0  0  0  0  0  0
    3.8441    2.1676   -1.0997 H   0  0  0  0  0  0  0  0  0  0  0  0
    5.5215    0.4516   -1.5908 H   0  0  0  0  0  0  0  0  0  0  0  0
    7.8778   -0.1292   -1.3413 H   0  0  0  0  0  0  0  0  0  0  0  0
    8.8460   -0.5520    0.9047 H   0  0  0  0  0  0  0  0  0  0  0  0
    7.4033   -0.3616    2.9177 H   0  0  0  0  0  0  0  0  0  0  0  0
    5.0346    0.2499    2.6891 H   0  0  0  0  0  0  0  0  0  0  0  0
    2.8151   -1.1944    0.2526 H   0  0  0  0  0  0  0  0  0  0  0  0
    3.1001   -0.7172    1.9338 H   0  0  0  0  0  0  0  0  0  0  0  0
    1.2866    0.9222    1.8772 H   0  0  0  0  0  0  0  0  0  0  0  0
    0.6966   -0.6709    1.3823 H   0  0  0  0  0  0  0  0  0  0  0  0
   -0.6997    3.1915    0.0507 H   0  0  0  0  0  0  0  0  0  0  0  0
   -3.3354    2.6883    0.0824 H   0  0  0  0  0  0  0  0  0  0  0  0
   -6.2008   -0.6152   -1.5226 H   0  0  0  0  0  0  0  0  0  0  0  0
   -8.4428    0.2679   -0.9353 H   0  0  0  0  0  0  0  0  0  0  0  0
  1  2  2  0
  2  3  1  0
  3  4  2  0
  4  5  1  0
  5  6  2  0
  6  7  1  0
  7  8  2  0
  8  9  1  0
  9 10  2  0
 10 11  1  0
 11 12  2  0
 12 13  1  0
 13 14  1  0
 14 15  1  0
 15 16  1  0
 16 17  1  0
 17 18  1  0
 18 19  1  0
 19 20  2  0
 20 21  1  0
 21 22  2  0
 22 23  1  0
 23 24  2  0
 18 25  1  0
 25 26  1  0
 14 27  2  0
 27 28  1  0
 28 29  2  0
  4 30  1  0
 30 31  2  0
 31  1  1  0
 29  5  1  0
 12  7  1  0
 29 13  1  0
 26 15  1  0
 24 19  1  0
  1 32  1  0
  2 33  1  0
  3 34  1  0
  8 35  1  0
  9 36  1  0
 10 37  1  0
 11 38  1  0
 16 39  1  0
 16 40  1  0
 17 41  1  0
 17 42  1  0
 20 43  1  0
 21 44  1  0
 22 45  1  0
 23 46  1  0
 24 47  1  0
 25 48  1  0
 25 49  1  0
 26 50  1  0
 26 51  1  0
 27 52  1  0
 28 53  1  0
 30 54  1  0
 31 55  1  0
M  END
$$$$
