
     RDKit          3D

 33 35  0  0  0  0  0  0  0  0999 V2000
   -3.1452   -2.0749    0.5341 O   0  0  0  0  0  0  0  0  0  0  0  0
   -3.7144   -0.8393    0.3721 C   0  0  0  0  0  0  0  0  0  0  0  0
   -5.1073   -0.7250    0.4013 C   0  0  0  0  0  0  0  0  0  0  0  0
   -5.7050    0.5273    0.2627 C   0  0  0  0  0  0  0  0  0  0  0  0
   -4.9133    1.6614    0.1004 C   0  0  0  0  0  0  0  0  0  0  0  0
   -3.5213    1.5439    0.0710 C   0  0  0  0  0  0  0  0  0  0  0  0
   -2.9009    0.2911    0.1934 C   0  0  0  0  0  0  0  0  0  0  0  0
   -1.4291    0.2606    0.1789 C   0  0  0  0  0  0  0  0  0  0  0  0
   -0.7067   -0.6258   -0.5254 C   0  0  0  0  0  0  0  0  0  0  0  0
    0.7622   -0.6536   -0.5614 C   0  0  0  0  0  0  0  0  0  0  0  0
    1.4163   -1.6449   -1.2833 C   0  0  0  0  0  0  0  0  0  0  0  0
    2.8085   -1.6504   -1.3092 C   0  0  0  0  0  0  0  0  0  0  0  0
    3.5188   -0.6661   -0.6143 C   0  0  0  0  0  0  0  0  0  0  0  0
    4.9263   -0.6205   -0.6037 C   0  0  0  0  0  0  0  0  0  0  0  0
    5.5970    0.3793    0.1032 C   0  0  0  0  0  0  0  0  0  0  0  0
    4.8695    1.3368    0.8022 C   0  0  0  0  0  0  0  0  0  0  0  0
    3.4793    1.2794    0.7833 C   0  0  0  0  0  0  0  0  0  0  0  0
    2.7818    2.2358    1.4827 O   0  0  0  0  0  0  0  0  0  0  0  0
    2.7751    0.2990    0.0899 C   0  0  0  0  0  0  0  0  0  0  0  0
    1.4255    0.3119    0.1191 N   0  0  0  0  0  0  0  0  0  0  0  0
   -3.8398   -2.7111    0.7668 H   0  0  0  0  0  0  0  0  0  0  0  0
   -5.7397   -1.5976    0.5322 H   0  0  0  0  0  0  0  0  0  0  0  0
   -6.7878    0.6199    0.2853 H   0  0  0  0  0  0  0  0  0  0  0  0
   -5.3762    2.6395   -0.0032 H   0  0  0  0  0  0  0  0  0  0  0  0
   -2.9202    2.4419   -0.0575 H   0  0  0  0  0  0  0  0  0  0  0  0
   -0.9377    1.0336    0.7640 H   0  0  0  0  0  0  0  0  0  0  0  0
   -1.2121   -1.3844   -1.1160 H   0  0  0  0  0  0  0  0  0  0  0  0
    0.8609   -2.4073   -1.8196 H   0  0  0  0  0  0  0  0  0  0  0  0
    3.3295   -2.4218   -1.8700 H   0  0  0  0  0  0  0  0  0  0  0  0
    5.5058   -1.3642   -1.1463 H   0  0  0  0  0  0  0  0  0  0  0  0
    6.6835    0.4105    0.1087 H   0  0  0  0  0  0  0  0  0  0  0  0
    5.3737    2.1215    1.3582 H   0  0  0  0  0  0  0  0  0  0  0  0
    1.8427    1.9934    1.3333 H   0  0  0  0  0  0  0  0  0  0  0  0
  1  2  1  0
  2  3  2  0
  3  4  1  0
  4  5  2  0
  5  6  1  0
  6  7  2  0
  7  8  1  0
  8  9  2  0
  9 10  1  0
 10 11  2  0
 11 12  1  0
 12 13  2  0
 13 14  1  0
 14 15  2  0
 15 16  1  0
 16 17  2  0
 17 18  1  0
 17 19  1  0
 19 20  2  0
  7  2  1  0
 20 10  1  0
 19 13  1  0
  1 21  1  0
  3 22  1  0
  4 23  1  0
  5 24  1  0
  6 25  1  0
  8 26  1  0
  9 27  1  0
 11 28  1  0
 12 29  1  0
 14 30  1  0
 15 31  1  0
 16 32  1  0
 18 33  1  0
M  END
$$$$
