
     RDKit          3D

 55 60  0  0  0  0  0  0  0  0999 V2000
   -7.3569    1.5580    1.4650 C   0  0  0  0  0  0  0  0  0  0  0  0
   -7.4272    0.9017    0.2357 C   0  0  0  0  0  0  0  0  0  0  0  0
   -6.2865    0.3040   -0.3019 C   0  0  0  0  0  0  0  0  0  0  0  0
   -5.0697    0.3751    0.3861 C   0  0  0  0  0  0  0  0  0  0  0  0
   -3.8747   -0.2841   -0.2020 C   0  0  0  0  0  0  0  0  0  0  0  0
   -4.0030   -1.4892   -0.6730 N   0  0  0  0  0  0  0  0  0  0  0  0
   -2.8805   -2.1360   -1.2263 C   0  0  0  0  0  0  0  0  0  0  0  0
   -3.0695   -3.4117   -1.7661 C   0  0  0  0  0  0  0  0  0  0  0  0
   -2.0094   -4.1041   -2.3528 C   0  0  0  0  0  0  0  0  0  0  0  0
   -0.7473   -3.5181   -2.4134 C   0  0  0  0  0  0  0  0  0  0  0  0
   -0.5379   -2.2457   -1.8772 C   0  0  0  0  0  0  0  0  0  0  0  0
   -1.5964   -1.5652   -1.2672 C   0  0  0  0  0  0  0  0  0  0  0  0
   -1.4734   -0.2683   -0.7083 N   0  0  0  0  0  0  0  0  0  0  0  0
   -0.3650    0.5595   -0.5237 C   0  0  0  0  0  0  0  0  0  0  0  0
    0.9326    0.1401   -0.6695 N   0  0  0  0  0  0  0  0  0  0  0  0
    1.4816   -0.6020    0.5012 C   0  0  0  0  0  0  0  0  0  0  0  0
    3.0061   -0.8273    0.3963 C   0  0  0  0  0  0  0  0  0  0  0  0
    3.7316    0.4518    0.2837 N   0  0  0  0  0  0  0  0  0  0  0  0
    5.0351    0.5933    0.7262 C   0  0  0  0  0  0  0  0  0  0  0  0
    5.8815   -0.5134    0.9062 C   0  0  0  0  0  0  0  0  0  0  0  0
    7.2020   -0.3761    1.3528 C   0  0  0  0  0  0  0  0  0  0  0  0
    7.7146    0.8835    1.6352 C   0  0  0  0  0  0  0  0  0  0  0  0
    6.9052    1.9999    1.4689 C   0  0  0  0  0  0  0  0  0  0  0  0
    5.5866    1.8514    1.0201 C   0  0  0  0  0  0  0  0  0  0  0  0
    2.9866    1.5734   -0.3179 C   0  0  0  0  0  0  0  0  0  0  0  0
    1.9032    1.0718   -1.2974 C   0  0  0  0  0  0  0  0  0  0  0  0
   -0.8411    1.8029   -0.1508 C   0  0  0  0  0  0  0  0  0  0  0  0
   -2.2382    1.7044    0.0192 C   0  0  0  0  0  0  0  0  0  0  0  0
   -2.5999    0.3991   -0.2526 C   0  0  0  0  0  0  0  0  0  0  0  0
   -5.0061    1.0152    1.6292 C   0  0  0  0  0  0  0  0  0  0  0  0
   -6.1499    1.6113    2.1635 C   0  0  0  0  0  0  0  0  0  0  0  0
   -8.2477    2.0193    1.8846 H   0  0  0  0  0  0  0  0  0  0  0  0
   -8.3709    0.8497   -0.3013 H   0  0  0  0  0  0  0  0  0  0  0  0
   -6.3454   -0.2159   -1.2555 H   0  0  0  0  0  0  0  0  0  0  0  0
   -4.0577   -3.8626   -1.7309 H   0  0  0  0  0  0  0  0  0  0  0  0
   -2.1739   -5.0931   -2.7718 H   0  0  0  0  0  0  0  0  0  0  0  0
    0.0751   -4.0475   -2.8880 H   0  0  0  0  0  0  0  0  0  0  0  0
    0.4480   -1.8056   -1.9724 H   0  0  0  0  0  0  0  0  0  0  0  0
    1.2719   -0.0399    1.4217 H   0  0  0  0  0  0  0  0  0  0  0  0
    0.9840   -1.5744    0.5889 H   0  0  0  0  0  0  0  0  0  0  0  0
    3.3164   -1.3748    1.2942 H   0  0  0  0  0  0  0  0  0  0  0  0
    3.2315   -1.4472   -0.4798 H   0  0  0  0  0  0  0  0  0  0  0  0
    5.5343   -1.5166    0.6760 H   0  0  0  0  0  0  0  0  0  0  0  0
    7.8259   -1.2576    1.4730 H   0  0  0  0  0  0  0  0  0  0  0  0
    8.7377    0.9943    1.9824 H   0  0  0  0  0  0  0  0  0  0  0  0
    7.2915    2.9908    1.6913 H   0  0  0  0  0  0  0  0  0  0  0  0
    4.9863    2.7519    0.9283 H   0  0  0  0  0  0  0  0  0  0  0  0
    2.5238    2.1673    0.4793 H   0  0  0  0  0  0  0  0  0  0  0  0
    3.6599    2.2264   -0.8860 H   0  0  0  0  0  0  0  0  0  0  0  0
    2.3917    0.5255   -2.1145 H   0  0  0  0  0  0  0  0  0  0  0  0
    1.4009    1.9284   -1.7630 H   0  0  0  0  0  0  0  0  0  0  0  0
   -0.2357    2.6786    0.0394 H   0  0  0  0  0  0  0  0  0  0  0  0
   -2.8995    2.5017    0.3329 H   0  0  0  0  0  0  0  0  0  0  0  0
   -4.0790    1.0373    2.1955 H   0  0  0  0  0  0  0  0  0  0  0  0
   -6.1032    2.1085    3.1291 H   0  0  0  0  0  0  0  0  0  0  0  0
  1  2  2  0
  2  3  1  0
  3  4  2  0
  4  5  1  0
  5  6  2  0
  6  7  1  0
  7  8  2  0
  8  9  1  0
  9 10  2  0
 10 11  1  0
 11 12  2  0
 12 13  1  0
 13 14  1  0
 14 15  1  0
 15 16  1  0
 16 17  1  0
 17 18  1  0
 18 19  1  0
 19 20  2  0
 20 21  1  0
 21 22  2  0
 22 23  1  0
 23 24  2  0
 18 25  1  0
 25 26  1  0
 14 27  2  0
 27 28  1  0
 28 29  2  0
  4 30  1  0
 30 31  2  0
 31  1  1  0
 29  5  1  0
 12  7  1  0
 29 13  1  0
 26 15  1  0
 24 19  1  0
  1 32  1  0
  2 33  1  0
  3 34  1  0
  8 35  1  0
  9 36  1  0
 10 37  1  0
 11 38  1  0
 16 39  1  0
 16 40  1  0
 17 41  1  0
 17 42  1  0
 20 43  1  0
 21 44  1  0
 22 45  1  0
 23 46  1  0
 24 47  1  0
 25 48  1  0
 25 49  1  0
 26 50  1  0
 26 51  1  0
 27 52  1  0
 28 53  1  0
 30 54  1  0
 31 55  1  0
M  END
$$$$
