
     RDKit          3D

 57 59  0  0  0  0  0  0  0  0999 V2000
   -5.5772    0.2562    1.6341 C   0  0  0  0  0  0  0  0  0  0  0  0
   -4.2151   -0.3750    1.9052 C   0  0  0  0  0  0  0  0  0  0  0  0
   -3.0433    0.3275    1.3513 N   0  0  0  0  0  0  0  0  0  0  0  0
   -2.8675    1.6943    1.8697 C   0  0  0  0  0  0  0  0  0  0  0  0
   -2.7169    1.7651    3.3865 C   0  0  0  0  0  0  0  0  0  0  0  0
   -3.0590    0.3068   -0.1253 C   0  0  0  0  0  0  0  0  0  0  0  0
   -1.6739    0.5239   -0.7551 C   0  0  0  0  0  0  0  0  0  0  0  0
   -1.7722    0.4004   -2.1834 O   0  0  0  0  0  0  0  0  0  0  0  0
   -1.2020   -0.7576   -2.6571 C   0  0  0  0  0  0  0  0  0  0  0  0
   -1.9571   -1.8219   -2.9985 C   0  0  0  0  0  0  0  0  0  0  0  0
   -1.2717   -3.0011   -3.6251 C   0  0  2  0  0  0  0  0  0  0  0  0
   -1.9474   -4.2404   -3.4674 O   0  0  0  0  0  0  0  0  0  0  0  0
   -1.0228   -5.2139   -3.7785 C   0  0  0  0  0  0  0  0  0  0  0  0
   -1.3101   -6.3885   -3.9422 O   0  0  0  0  0  0  0  0  0  0  0  0
    0.6571   -4.6296   -3.8606 S   0  0  0  0  0  0  0  0  0  0  0  0
    0.1134   -3.1746   -2.9900 C   0  0  1  0  0  0  0  0  0  0  0  0
    0.9106   -1.9196   -3.0936 C   0  0  0  0  0  0  0  0  0  0  0  0
    0.2477   -0.7543   -2.9045 C   0  0  0  0  0  0  0  0  0  0  0  0
    1.0091    0.5197   -3.0159 C   0  0  0  0  0  0  0  0  0  0  0  0
    0.8567    1.2665   -3.9783 O   0  0  0  0  0  0  0  0  0  0  0  0
    2.0049    0.8650   -1.9610 C   0  0  0  0  0  0  0  0  0  0  0  0
    2.1598    0.2256   -0.7911 C   0  0  0  0  0  0  0  0  0  0  0  0
    3.1554    0.5920    0.2286 C   0  0  0  0  0  0  0  0  0  0  0  0
    3.6529   -0.4089    1.0689 C   0  0  0  0  0  0  0  0  0  0  0  0
    4.5878   -0.1046    2.0645 C   0  0  0  0  0  0  0  0  0  0  0  0
    5.0338    1.2044    2.2482 C   0  0  0  0  0  0  0  0  0  0  0  0
    5.9522    1.3629    3.2484 O   0  0  0  0  0  0  0  0  0  0  0  0
    6.4306    2.6802    3.4795 C   0  0  0  0  0  0  0  0  0  0  0  0
    4.5256    2.2129    1.4299 C   0  0  0  0  0  0  0  0  0  0  0  0
    3.5895    1.9087    0.4310 C   0  0  0  0  0  0  0  0  0  0  0  0
   -6.3656   -0.3691    2.0657 H   0  0  0  0  0  0  0  0  0  0  0  0
   -5.6637    1.2492    2.0864 H   0  0  0  0  0  0  0  0  0  0  0  0
   -5.7764    0.3436    0.5622 H   0  0  0  0  0  0  0  0  0  0  0  0
   -4.2230   -1.4016    1.5145 H   0  0  0  0  0  0  0  0  0  0  0  0
   -4.0901   -0.5020    2.9871 H   0  0  0  0  0  0  0  0  0  0  0  0
   -1.9503    2.1238    1.4532 H   0  0  0  0  0  0  0  0  0  0  0  0
   -3.6878    2.3505    1.5549 H   0  0  0  0  0  0  0  0  0  0  0  0
   -2.4539    2.7865    3.6850 H   0  0  0  0  0  0  0  0  0  0  0  0
   -1.9237    1.0964    3.7379 H   0  0  0  0  0  0  0  0  0  0  0  0
   -3.6467    1.5064    3.9012 H   0  0  0  0  0  0  0  0  0  0  0  0
   -3.7686    1.0391   -0.5308 H   0  0  0  0  0  0  0  0  0  0  0  0
   -3.4136   -0.6721   -0.4760 H   0  0  0  0  0  0  0  0  0  0  0  0
   -1.3128    1.5373   -0.5571 H   0  0  0  0  0  0  0  0  0  0  0  0
   -0.9462   -0.1755   -0.3272 H   0  0  0  0  0  0  0  0  0  0  0  0
   -3.0365   -1.8092   -2.9029 H   0  0  0  0  0  0  0  0  0  0  0  0
   -1.2266   -2.7859   -4.7063 H   0  0  0  0  0  0  0  0  0  0  0  0
    0.0372   -3.4580   -1.9319 H   0  0  0  0  0  0  0  0  0  0  0  0
    1.9795   -1.9567   -3.2842 H   0  0  0  0  0  0  0  0  0  0  0  0
    2.6142    1.7243   -2.2280 H   0  0  0  0  0  0  0  0  0  0  0  0
    1.5447   -0.6336   -0.5341 H   0  0  0  0  0  0  0  0  0  0  0  0
    3.3312   -1.4424    0.9578 H   0  0  0  0  0  0  0  0  0  0  0  0
    4.9735   -0.8974    2.7013 H   0  0  0  0  0  0  0  0  0  0  0  0
    5.6166    3.3518    3.7641 H   0  0  0  0  0  0  0  0  0  0  0  0
    6.9682    3.0613    2.6078 H   0  0  0  0  0  0  0  0  0  0  0  0
    7.1341    2.6389    4.3158 H   0  0  0  0  0  0  0  0  0  0  0  0
    4.8352    3.2477    1.5390 H   0  0  0  0  0  0  0  0  0  0  0  0
    3.2005    2.7245   -0.1739 H   0  0  0  0  0  0  0  0  0  0  0  0
  1  2  1  0
  2  3  1  0
  3  4  1  0
  4  5  1  0
  3  6  1  0
  6  7  1  0
  7  8  1  0
  8  9  1  0
  9 10  2  0
 10 11  1  0
 11 12  1  0
 12 13  1  0
 13 14  2  0
 13 15  1  0
 15 16  1  0
 16 17  1  0
 17 18  2  0
 18 19  1  0
 19 20  2  0
 19 21  1  0
 21 22  2  0
 22 23  1  0
 23 24  2  0
 24 25  1  0
 25 26  2  0
 26 27  1  0
 27 28  1  0
 26 29  1  0
 29 30  2  0
 18  9  1  0
 30 23  1  0
 16 11  1  0
  1 31  1  0
  1 32  1  0
  1 33  1  0
  2 34  1  0
  2 35  1  0
  4 36  1  0
  4 37  1  0
  5 38  1  0
  5 39  1  0
  5 40  1  0
  6 41  1  0
  6 42  1  0
  7 43  1  0
  7 44  1  0
 10 45  1  0
 11 46  1  6
 16 47  1  1
 17 48  1  0
 21 49  1  0
 22 50  1  0
 24 51  1  0
 25 52  1  0
 28 53  1  0
 28 54  1  0
 28 55  1  0
 29 56  1  0
 30 57  1  0
M  END
$$$$
