
     RDKit          3D

 33 35  0  0  0  0  0  0  0  0999 V2000
    5.6382   -0.5196   -2.5790 O   0  0  0  0  0  0  0  0  0  0  0  0
    4.9675   -0.2630   -1.4189 C   0  0  0  0  0  0  0  0  0  0  0  0
    5.7205   -0.0305   -0.2749 C   0  0  0  0  0  0  0  0  0  0  0  0
    5.0748    0.2427    0.9289 C   0  0  0  0  0  0  0  0  0  0  0  0
    3.6784    0.2748    0.9811 C   0  0  0  0  0  0  0  0  0  0  0  0
    2.9159    0.0240   -0.1687 C   0  0  0  0  0  0  0  0  0  0  0  0
    1.4480    0.0748   -0.1606 C   0  0  0  0  0  0  0  0  0  0  0  0
    0.6843   -0.4151    0.8306 C   0  0  0  0  0  0  0  0  0  0  0  0
   -0.7861   -0.3755    0.8197 C   0  0  0  0  0  0  0  0  0  0  0  0
   -1.5032   -0.8946    1.8862 C   0  0  0  0  0  0  0  0  0  0  0  0
   -2.8920   -0.8404    1.8420 C   0  0  0  0  0  0  0  0  0  0  0  0
   -3.5344   -0.2712    0.7366 C   0  0  0  0  0  0  0  0  0  0  0  0
   -4.9379   -0.2048    0.6701 C   0  0  0  0  0  0  0  0  0  0  0  0
   -5.5689    0.3634   -0.4338 C   0  0  0  0  0  0  0  0  0  0  0  0
   -4.8036    0.8685   -1.4783 C   0  0  0  0  0  0  0  0  0  0  0  0
   -3.4081    0.8001   -1.4078 C   0  0  0  0  0  0  0  0  0  0  0  0
   -2.6683    1.3051   -2.4533 O   0  0  0  0  0  0  0  0  0  0  0  0
   -2.7379    0.2356   -0.3121 C   0  0  0  0  0  0  0  0  0  0  0  0
   -1.3871    0.1774   -0.2577 N   0  0  0  0  0  0  0  0  0  0  0  0
    3.5749   -0.2325   -1.3786 C   0  0  0  0  0  0  0  0  0  0  0  0
    4.9866   -0.6553   -3.2865 H   0  0  0  0  0  0  0  0  0  0  0  0
    6.8052   -0.0556   -0.3231 H   0  0  0  0  0  0  0  0  0  0  0  0
    5.6574    0.4376    1.8252 H   0  0  0  0  0  0  0  0  0  0  0  0
    3.1941    0.5113    1.9252 H   0  0  0  0  0  0  0  0  0  0  0  0
    0.9832    0.5219   -1.0384 H   0  0  0  0  0  0  0  0  0  0  0  0
    1.1409   -0.8859    1.6951 H   0  0  0  0  0  0  0  0  0  0  0  0
   -1.0030   -1.3354    2.7414 H   0  0  0  0  0  0  0  0  0  0  0  0
   -3.4656   -1.2438    2.6726 H   0  0  0  0  0  0  0  0  0  0  0  0
   -5.5471   -0.5971    1.4817 H   0  0  0  0  0  0  0  0  0  0  0  0
   -6.6541    0.4107   -0.4773 H   0  0  0  0  0  0  0  0  0  0  0  0
   -5.3016    1.3092   -2.3363 H   0  0  0  0  0  0  0  0  0  0  0  0
   -3.2647    1.6776   -3.1196 H   0  0  0  0  0  0  0  0  0  0  0  0
    2.9937   -0.4144   -2.2780 H   0  0  0  0  0  0  0  0  0  0  0  0
  1  2  1  0
  2  3  2  0
  3  4  1  0
  4  5  2  0
  5  6  1  0
  6  7  1  0
  7  8  2  0
  8  9  1  0
  9 10  2  0
 10 11  1  0
 11 12  2  0
 12 13  1  0
 13 14  2  0
 14 15  1  0
 15 16  2  0
 16 17  1  0
 16 18  1  0
 18 19  2  0
  6 20  2  0
 20  2  1  0
 19  9  1  0
 18 12  1  0
  1 21  1  0
  3 22  1  0
  4 23  1  0
  5 24  1  0
  7 25  1  0
  8 26  1  0
 10 27  1  0
 11 28  1  0
 13 29  1  0
 14 30  1  0
 15 31  1  0
 17 32  1  0
 20 33  1  0
M  END
$$$$
