
     RDKit          3D

 57 59  0  0  0  0  0  0  0  0999 V2000
   -2.3329    0.3136    2.4148 C   0  0  0  0  0  0  0  0  0  0  0  0
   -3.6234   -0.2344    1.8065 C   0  0  0  0  0  0  0  0  0  0  0  0
   -4.2983    0.5865    0.7927 N   0  0  0  0  0  0  0  0  0  0  0  0
   -4.2991    2.0200    1.0919 C   0  0  0  0  0  0  0  0  0  0  0  0
   -5.2527    2.8321    0.2189 C   0  0  0  0  0  0  0  0  0  0  0  0
   -3.9683    0.2167   -0.5947 C   0  0  0  0  0  0  0  0  0  0  0  0
   -2.5476    0.5037   -1.1089 C   0  0  0  0  0  0  0  0  0  0  0  0
   -1.6323   -0.5032   -0.6445 O   0  0  0  0  0  0  0  0  0  0  0  0
   -1.0980   -1.2442   -1.6690 C   0  0  0  0  0  0  0  0  0  0  0  0
   -1.6288   -2.4275   -2.0396 C   0  0  0  0  0  0  0  0  0  0  0  0
   -0.9600   -3.1729   -3.1588 C   0  0  2  0  0  0  0  0  0  0  0  0
   -1.2276   -4.5660   -3.1983 O   0  0  0  0  0  0  0  0  0  0  0  0
   -0.2762   -5.1087   -4.0366 C   0  0  0  0  0  0  0  0  0  0  0  0
   -0.3274   -6.2485   -4.4677 O   0  0  0  0  0  0  0  0  0  0  0  0
    1.0834   -4.0190   -4.4040 S   0  0  0  0  0  0  0  0  0  0  0  0
    0.5600   -3.0226   -3.0220 C   0  0  1  0  0  0  0  0  0  0  0  0
    0.9576   -1.5864   -2.9650 C   0  0  0  0  0  0  0  0  0  0  0  0
    0.1465   -0.7521   -2.2729 C   0  0  0  0  0  0  0  0  0  0  0  0
    0.5379    0.6776   -2.1671 C   0  0  0  0  0  0  0  0  0  0  0  0
    0.0296    1.5233   -2.8983 O   0  0  0  0  0  0  0  0  0  0  0  0
    1.5672    1.0708   -1.1687 C   0  0  0  0  0  0  0  0  0  0  0  0
    2.0578    0.2736   -0.2066 C   0  0  0  0  0  0  0  0  0  0  0  0
    3.0796    0.7091    0.7568 C   0  0  0  0  0  0  0  0  0  0  0  0
    4.0646   -0.2017    1.1580 C   0  0  0  0  0  0  0  0  0  0  0  0
    5.0539    0.1674    2.0790 C   0  0  0  0  0  0  0  0  0  0  0  0
    5.0634    1.4520    2.6191 C   0  0  0  0  0  0  0  0  0  0  0  0
    5.9733    1.9437    3.5133 O   0  0  0  0  0  0  0  0  0  0  0  0
    7.0642    1.0970    3.8525 C   0  0  0  0  0  0  0  0  0  0  0  0
    4.0654    2.3533    2.2455 C   0  0  0  0  0  0  0  0  0  0  0  0
    3.0780    1.9871    1.3261 C   0  0  0  0  0  0  0  0  0  0  0  0
   -1.5874    0.5745    1.6579 H   0  0  0  0  0  0  0  0  0  0  0  0
   -2.5251    1.2022    3.0260 H   0  0  0  0  0  0  0  0  0  0  0  0
   -1.8874   -0.4399    3.0759 H   0  0  0  0  0  0  0  0  0  0  0  0
   -4.3354   -0.3789    2.6294 H   0  0  0  0  0  0  0  0  0  0  0  0
   -3.4367   -1.2439    1.4191 H   0  0  0  0  0  0  0  0  0  0  0  0
   -3.2935    2.4514    1.0104 H   0  0  0  0  0  0  0  0  0  0  0  0
   -4.6251    2.1609    2.1309 H   0  0  0  0  0  0  0  0  0  0  0  0
   -5.3525    3.8458    0.6232 H   0  0  0  0  0  0  0  0  0  0  0  0
   -4.8802    2.9249   -0.8064 H   0  0  0  0  0  0  0  0  0  0  0  0
   -6.2522    2.3837    0.1917 H   0  0  0  0  0  0  0  0  0  0  0  0
   -4.6770    0.7201   -1.2627 H   0  0  0  0  0  0  0  0  0  0  0  0
   -4.1835   -0.8529   -0.7200 H   0  0  0  0  0  0  0  0  0  0  0  0
   -2.5747    0.5488   -2.2066 H   0  0  0  0  0  0  0  0  0  0  0  0
   -2.1862    1.4773   -0.7639 H   0  0  0  0  0  0  0  0  0  0  0  0
   -2.5333   -2.8159   -1.5867 H   0  0  0  0  0  0  0  0  0  0  0  0
   -1.3551   -2.7367   -4.0920 H   0  0  0  0  0  0  0  0  0  0  0  0
    0.9323   -3.5260   -2.1184 H   0  0  0  0  0  0  0  0  0  0  0  0
    1.8860   -1.2505   -3.4159 H   0  0  0  0  0  0  0  0  0  0  0  0
    1.8954    2.1007   -1.2777 H   0  0  0  0  0  0  0  0  0  0  0  0
    1.7265   -0.7553   -0.0946 H   0  0  0  0  0  0  0  0  0  0  0  0
    4.0813   -1.2103    0.7502 H   0  0  0  0  0  0  0  0  0  0  0  0
    5.7992   -0.5725    2.3518 H   0  0  0  0  0  0  0  0  0  0  0  0
    7.6396    0.8143    2.9644 H   0  0  0  0  0  0  0  0  0  0  0  0
    7.7306    1.6592    4.5144 H   0  0  0  0  0  0  0  0  0  0  0  0
    6.7186    0.2135    4.3996 H   0  0  0  0  0  0  0  0  0  0  0  0
    4.0562    3.3522    2.6753 H   0  0  0  0  0  0  0  0  0  0  0  0
    2.3096    2.7131    1.0725 H   0  0  0  0  0  0  0  0  0  0  0  0
  1  2  1  0
  2  3  1  0
  3  4  1  0
  4  5  1  0
  3  6  1  0
  6  7  1  0
  7  8  1  0
  8  9  1  0
  9 10  2  0
 10 11  1  0
 11 12  1  0
 12 13  1  0
 13 14  2  0
 13 15  1  0
 15 16  1  0
 16 17  1  0
 17 18  2  0
 18 19  1  0
 19 20  2  0
 19 21  1  0
 21 22  2  0
 22 23  1  0
 23 24  2  0
 24 25  1  0
 25 26  2  0
 26 27  1  0
 27 28  1  0
 26 29  1  0
 29 30  2  0
 18  9  1  0
 30 23  1  0
 16 11  1  0
  1 31  1  0
  1 32  1  0
  1 33  1  0
  2 34  1  0
  2 35  1  0
  4 36  1  0
  4 37  1  0
  5 38  1  0
  5 39  1  0
  5 40  1  0
  6 41  1  0
  6 42  1  0
  7 43  1  0
  7 44  1  0
 10 45  1  0
 11 46  1  6
 16 47  1  1
 17 48  1  0
 21 49  1  0
 22 50  1  0
 24 51  1  0
 25 52  1  0
 28 53  1  0
 28 54  1  0
 28 55  1  0
 29 56  1  0
 30 57  1  0
M  END
$$$$
