
     RDKit          3D

 43 45  0  0  0  0  0  0  0  0999 V2000
    0.0463    4.0550    0.8784 C   0  0  0  0  0  0  0  0  0  0  0  0
   -1.2506    3.3027    0.8326 C   0  0  0  0  0  0  0  0  0  0  0  0
   -1.8505    2.9066    1.8231 O   0  0  0  0  0  0  0  0  0  0  0  0
   -1.6397    3.1719   -0.4953 O   0  0  0  0  0  0  0  0  0  0  0  0
   -2.7762    2.3715   -0.6520 C   0  0  0  0  0  0  0  0  0  0  0  0
   -4.0020    3.0101   -0.8451 C   0  0  0  0  0  0  0  0  0  0  0  0
   -5.1487    2.2419   -1.0368 C   0  0  0  0  0  0  0  0  0  0  0  0
   -5.0628    0.8482   -1.0446 C   0  0  0  0  0  0  0  0  0  0  0  0
   -3.8279    0.2161   -0.8678 C   0  0  0  0  0  0  0  0  0  0  0  0
   -2.6669    0.9730   -0.6791 C   0  0  0  0  0  0  0  0  0  0  0  0
   -1.3847    0.2845   -0.5154 C   0  0  0  0  0  0  0  0  0  0  0  0
   -0.4620    0.2604   -1.4905 C   0  0  0  0  0  0  0  0  0  0  0  0
    0.8436   -0.3992   -1.3562 C   0  0  0  0  0  0  0  0  0  0  0  0
    1.6839   -0.5160   -2.4530 C   0  0  0  0  0  0  0  0  0  0  0  0
    2.9149   -1.1434   -2.2856 C   0  0  0  0  0  0  0  0  0  0  0  0
    3.2802   -1.6409   -1.0294 C   0  0  0  0  0  0  0  0  0  0  0  0
    4.5200   -2.2767   -0.8205 C   0  0  0  0  0  0  0  0  0  0  0  0
    4.8715   -2.7574    0.4416 C   0  0  0  0  0  0  0  0  0  0  0  0
    3.9863   -2.6126    1.5023 C   0  0  0  0  0  0  0  0  0  0  0  0
    2.7523   -1.9972    1.2765 C   0  0  0  0  0  0  0  0  0  0  0  0
    1.8961   -1.8373    2.3762 O   0  0  0  0  0  0  0  0  0  0  0  0
    0.8447   -2.7439    2.3493 C   0  0  0  0  0  0  0  0  0  0  0  0
   -0.1671   -2.3378    3.3786 C   0  0  0  0  0  0  0  0  0  0  0  0
    0.7508   -3.7445    1.6495 O   0  0  0  0  0  0  0  0  0  0  0  0
    2.3685   -1.4844    0.0330 C   0  0  0  0  0  0  0  0  0  0  0  0
    1.1784   -0.8636   -0.1315 N   0  0  0  0  0  0  0  0  0  0  0  0
    0.4051    4.0966    1.9107 H   0  0  0  0  0  0  0  0  0  0  0  0
   -0.1045    5.0747    0.5169 H   0  0  0  0  0  0  0  0  0  0  0  0
    0.7964    3.5382    0.2744 H   0  0  0  0  0  0  0  0  0  0  0  0
   -4.0649    4.0938   -0.8382 H   0  0  0  0  0  0  0  0  0  0  0  0
   -6.1112    2.7273   -1.1767 H   0  0  0  0  0  0  0  0  0  0  0  0
   -5.9592    0.2503   -1.1898 H   0  0  0  0  0  0  0  0  0  0  0  0
   -3.7779   -0.8706   -0.8820 H   0  0  0  0  0  0  0  0  0  0  0  0
   -1.2237   -0.2025    0.4430 H   0  0  0  0  0  0  0  0  0  0  0  0
   -0.6631    0.7443   -2.4417 H   0  0  0  0  0  0  0  0  0  0  0  0
    1.3960   -0.1357   -3.4268 H   0  0  0  0  0  0  0  0  0  0  0  0
    3.5813   -1.2439   -3.1381 H   0  0  0  0  0  0  0  0  0  0  0  0
    5.2208   -2.3986   -1.6439 H   0  0  0  0  0  0  0  0  0  0  0  0
    5.8315   -3.2441    0.5931 H   0  0  0  0  0  0  0  0  0  0  0  0
    4.2439   -2.9808    2.4904 H   0  0  0  0  0  0  0  0  0  0  0  0
   -0.5028   -1.3160    3.1849 H   0  0  0  0  0  0  0  0  0  0  0  0
    0.2677   -2.4181    4.3776 H   0  0  0  0  0  0  0  0  0  0  0  0
   -1.0339   -3.0020    3.3153 H   0  0  0  0  0  0  0  0  0  0  0  0
  1  2  1  0
  2  3  2  0
  2  4  1  0
  4  5  1  0
  5  6  2  0
  6  7  1  0
  7  8  2  0
  8  9  1  0
  9 10  2  0
 10 11  1  0
 11 12  2  0
 12 13  1  0
 13 14  2  0
 14 15  1  0
 15 16  2  0
 16 17  1  0
 17 18  2  0
 18 19  1  0
 19 20  2  0
 20 21  1  0
 21 22  1  0
 22 23  1  0
 22 24  2  0
 20 25  1  0
 25 26  2  0
 10  5  1  0
 26 13  1  0
 25 16  1  0
  1 27  1  0
  1 28  1  0
  1 29  1  0
  6 30  1  0
  7 31  1  0
  8 32  1  0
  9 33  1  0
 11 34  1  0
 12 35  1  0
 14 36  1  0
 15 37  1  0
 17 38  1  0
 18 39  1  0
 19 40  1  0
 23 41  1  0
 23 42  1  0
 23 43  1  0
M  END
$$$$
