
     RDKit          3D

 55 60  0  0  0  0  0  0  0  0999 V2000
   -6.5531    1.9663    2.0086 C   0  0  0  0  0  0  0  0  0  0  0  0
   -5.2571    1.8857    2.5201 C   0  0  0  0  0  0  0  0  0  0  0  0
   -4.2836    1.1533    1.8395 C   0  0  0  0  0  0  0  0  0  0  0  0
   -4.6088    0.5079    0.6400 C   0  0  0  0  0  0  0  0  0  0  0  0
   -3.5961   -0.2856   -0.1017 C   0  0  0  0  0  0  0  0  0  0  0  0
   -3.9117   -1.4846   -0.4945 N   0  0  0  0  0  0  0  0  0  0  0  0
   -2.9612   -2.2473   -1.2020 C   0  0  0  0  0  0  0  0  0  0  0  0
   -3.3557   -3.5038   -1.6667 C   0  0  0  0  0  0  0  0  0  0  0  0
   -2.4785   -4.3025   -2.4017 C   0  0  0  0  0  0  0  0  0  0  0  0
   -1.1972   -3.8424   -2.6903 C   0  0  0  0  0  0  0  0  0  0  0  0
   -0.7835   -2.5897   -2.2345 C   0  0  0  0  0  0  0  0  0  0  0  0
   -1.6538   -1.8047   -1.4717 C   0  0  0  0  0  0  0  0  0  0  0  0
   -1.3159   -0.5176   -0.9795 N   0  0  0  0  0  0  0  0  0  0  0  0
   -0.1139    0.1995   -0.9920 C   0  0  0  0  0  0  0  0  0  0  0  0
    1.0994   -0.3549   -1.3102 N   0  0  0  0  0  0  0  0  0  0  0  0
    1.6814   -1.3156   -0.3309 C   0  0  0  0  0  0  0  0  0  0  0  0
    2.5697   -0.6049    0.7155 C   0  0  0  0  0  0  0  0  0  0  0  0
    3.6375    0.1782    0.0494 N   0  0  0  0  0  0  0  0  0  0  0  0
    4.6703    0.6988    0.8463 C   0  0  0  0  0  0  0  0  0  0  0  0
    5.8607    1.1271    0.2322 C   0  0  0  0  0  0  0  0  0  0  0  0
    6.9274    1.6472    0.9711 C   0  0  0  0  0  0  0  0  0  0  0  0
    6.8302    1.7450    2.3537 C   0  0  0  0  0  0  0  0  0  0  0  0
    5.6684    1.3177    2.9899 C   0  0  0  0  0  0  0  0  0  0  0  0
    4.6039    0.7958    2.2435 C   0  0  0  0  0  0  0  0  0  0  0  0
    3.0826    1.1666   -0.9139 C   0  0  0  0  0  0  0  0  0  0  0  0
    2.1446    0.4878   -1.9382 C   0  0  0  0  0  0  0  0  0  0  0  0
   -0.4243    1.5023   -0.6462 C   0  0  0  0  0  0  0  0  0  0  0  0
   -1.7773    1.5435   -0.2469 C   0  0  0  0  0  0  0  0  0  0  0  0
   -2.2894    0.2684   -0.3842 C   0  0  0  0  0  0  0  0  0  0  0  0
   -5.9136    0.5719    0.1412 C   0  0  0  0  0  0  0  0  0  0  0  0
   -6.8833    1.3071    0.8230 C   0  0  0  0  0  0  0  0  0  0  0  0
   -7.3109    2.5353    2.5408 H   0  0  0  0  0  0  0  0  0  0  0  0
   -5.0084    2.3860    3.4528 H   0  0  0  0  0  0  0  0  0  0  0  0
   -3.2840    1.0760    2.2586 H   0  0  0  0  0  0  0  0  0  0  0  0
   -4.3616   -3.8542   -1.4575 H   0  0  0  0  0  0  0  0  0  0  0  0
   -2.8014   -5.2746   -2.7596 H   0  0  0  0  0  0  0  0  0  0  0  0
   -0.5202   -4.4536   -3.2824 H   0  0  0  0  0  0  0  0  0  0  0  0
    0.2058   -2.2434   -2.5142 H   0  0  0  0  0  0  0  0  0  0  0  0
    2.2893   -2.0394   -0.8885 H   0  0  0  0  0  0  0  0  0  0  0  0
    0.9002   -1.8870    0.1835 H   0  0  0  0  0  0  0  0  0  0  0  0
    1.9461    0.0534    1.3337 H   0  0  0  0  0  0  0  0  0  0  0  0
    3.0118   -1.3739    1.3605 H   0  0  0  0  0  0  0  0  0  0  0  0
    5.9766    1.0304   -0.8443 H   0  0  0  0  0  0  0  0  0  0  0  0
    7.8340    1.9645    0.4631 H   0  0  0  0  0  0  0  0  0  0  0  0
    7.6564    2.1475    2.9324 H   0  0  0  0  0  0  0  0  0  0  0  0
    5.5880    1.3851    4.0723 H   0  0  0  0  0  0  0  0  0  0  0  0
    3.7166    0.4833    2.7861 H   0  0  0  0  0  0  0  0  0  0  0  0
    2.5395    1.9417   -0.3599 H   0  0  0  0  0  0  0  0  0  0  0  0
    3.8761    1.6669   -1.4804 H   0  0  0  0  0  0  0  0  0  0  0  0
    1.6964    1.2419   -2.5970 H   0  0  0  0  0  0  0  0  0  0  0  0
    2.7461   -0.1642   -2.5843 H   0  0  0  0  0  0  0  0  0  0  0  0
    0.2642    2.3330   -0.6132 H   0  0  0  0  0  0  0  0  0  0  0  0
   -2.3095    2.4134    0.1164 H   0  0  0  0  0  0  0  0  0  0  0  0
   -6.1730    0.0534   -0.7772 H   0  0  0  0  0  0  0  0  0  0  0  0
   -7.8962    1.3620    0.4317 H   0  0  0  0  0  0  0  0  0  0  0  0
  1  2  2  0
  2  3  1  0
  3  4  2  0
  4  5  1  0
  5  6  2  0
  6  7  1  0
  7  8  2  0
  8  9  1  0
  9 10  2  0
 10 11  1  0
 11 12  2  0
 12 13  1  0
 13 14  1  0
 14 15  1  0
 15 16  1  0
 16 17  1  0
 17 18  1  0
 18 19  1  0
 19 20  2  0
 20 21  1  0
 21 22  2  0
 22 23  1  0
 23 24  2  0
 18 25  1  0
 25 26  1  0
 14 27  2  0
 27 28  1  0
 28 29  2  0
  4 30  1  0
 30 31  2  0
 31  1  1  0
 29  5  1  0
 12  7  1  0
 29 13  1  0
 26 15  1  0
 24 19  1  0
  1 32  1  0
  2 33  1  0
  3 34  1  0
  8 35  1  0
  9 36  1  0
 10 37  1  0
 11 38  1  0
 16 39  1  0
 16 40  1  0
 17 41  1  0
 17 42  1  0
 20 43  1  0
 21 44  1  0
 22 45  1  0
 23 46  1  0
 24 47  1  0
 25 48  1  0
 25 49  1  0
 26 50  1  0
 26 51  1  0
 27 52  1  0
 28 53  1  0
 30 54  1  0
 31 55  1  0
M  END
$$$$
