
     RDKit          3D

 55 60  0  0  0  0  0  0  0  0999 V2000
   -7.0753    1.8300    1.6233 C   0  0  0  0  0  0  0  0  0  0  0  0
   -7.2079    1.1037    0.4395 C   0  0  0  0  0  0  0  0  0  0  0  0
   -6.1008    0.4537   -0.1076 C   0  0  0  0  0  0  0  0  0  0  0  0
   -4.8550    0.5420    0.5245 C   0  0  0  0  0  0  0  0  0  0  0  0
   -3.6969   -0.1738   -0.0720 C   0  0  0  0  0  0  0  0  0  0  0  0
   -3.8677   -1.3985   -0.4745 N   0  0  0  0  0  0  0  0  0  0  0  0
   -2.7813   -2.0969   -1.0369 C   0  0  0  0  0  0  0  0  0  0  0  0
   -3.0172   -3.3920   -1.5076 C   0  0  0  0  0  0  0  0  0  0  0  0
   -1.9951   -4.1343   -2.1011 C   0  0  0  0  0  0  0  0  0  0  0  0
   -0.7250   -3.5792   -2.2396 C   0  0  0  0  0  0  0  0  0  0  0  0
   -0.4692   -2.2882   -1.7732 C   0  0  0  0  0  0  0  0  0  0  0  0
   -1.4881   -1.5583   -1.1531 C   0  0  0  0  0  0  0  0  0  0  0  0
   -1.3153   -0.2410   -0.6593 N   0  0  0  0  0  0  0  0  0  0  0  0
   -0.1796    0.5628   -0.5414 C   0  0  0  0  0  0  0  0  0  0  0  0
    1.1039    0.0978   -0.6944 N   0  0  0  0  0  0  0  0  0  0  0  0
    2.1175    1.0583   -1.2094 C   0  0  0  0  0  0  0  0  0  0  0  0
    3.4277    0.3250   -1.5806 C   0  0  0  0  0  0  0  0  0  0  0  0
    3.9728   -0.4236   -0.4168 N   0  0  0  0  0  0  0  0  0  0  0  0
    4.8326    0.2799    0.4313 C   0  0  0  0  0  0  0  0  0  0  0  0
    5.9337    0.9747   -0.1015 C   0  0  0  0  0  0  0  0  0  0  0  0
    6.8287    1.6867    0.7057 C   0  0  0  0  0  0  0  0  0  0  0  0
    6.6521    1.7115    2.0825 C   0  0  0  0  0  0  0  0  0  0  0  0
    5.5902    1.0139    2.6447 C   0  0  0  0  0  0  0  0  0  0  0  0
    4.7008    0.3021    1.8280 C   0  0  0  0  0  0  0  0  0  0  0  0
    2.9701   -1.3654    0.1345 C   0  0  0  0  0  0  0  0  0  0  0  0
    1.6326   -0.6667    0.4764 C   0  0  0  0  0  0  0  0  0  0  0  0
   -0.6180    1.8398   -0.2410 C   0  0  0  0  0  0  0  0  0  0  0  0
   -2.0113    1.7861   -0.0233 C   0  0  0  0  0  0  0  0  0  0  0  0
   -2.4105    0.4761   -0.2040 C   0  0  0  0  0  0  0  0  0  0  0  0
   -4.7290    1.2532    1.7233 C   0  0  0  0  0  0  0  0  0  0  0  0
   -5.8394    1.9015    2.2673 C   0  0  0  0  0  0  0  0  0  0  0  0
   -7.9399    2.3323    2.0506 H   0  0  0  0  0  0  0  0  0  0  0  0
   -8.1740    1.0382   -0.0545 H   0  0  0  0  0  0  0  0  0  0  0  0
   -6.2085   -0.1202   -1.0253 H   0  0  0  0  0  0  0  0  0  0  0  0
   -4.0124   -3.8187   -1.4135 H   0  0  0  0  0  0  0  0  0  0  0  0
   -2.1961   -5.1379   -2.4662 H   0  0  0  0  0  0  0  0  0  0  0  0
    0.0665   -4.1475   -2.7219 H   0  0  0  0  0  0  0  0  0  0  0  0
    0.5184   -1.8713   -1.9326 H   0  0  0  0  0  0  0  0  0  0  0  0
    2.3254    1.8282   -0.4553 H   0  0  0  0  0  0  0  0  0  0  0  0
    1.7326    1.5548   -2.1086 H   0  0  0  0  0  0  0  0  0  0  0  0
    3.2171   -0.4001   -2.3776 H   0  0  0  0  0  0  0  0  0  0  0  0
    4.1387    1.0419   -2.0027 H   0  0  0  0  0  0  0  0  0  0  0  0
    6.1343    0.9399   -1.1694 H   0  0  0  0  0  0  0  0  0  0  0  0
    7.6683    2.2071    0.2532 H   0  0  0  0  0  0  0  0  0  0  0  0
    7.3451    2.2591    2.7148 H   0  0  0  0  0  0  0  0  0  0  0  0
    5.4495    1.0155    3.7224 H   0  0  0  0  0  0  0  0  0  0  0  0
    3.8939   -0.2235    2.3268 H   0  0  0  0  0  0  0  0  0  0  0  0
    3.3585   -1.9166    0.9983 H   0  0  0  0  0  0  0  0  0  0  0  0
    2.7770   -2.1252   -0.6342 H   0  0  0  0  0  0  0  0  0  0  0  0
    1.7670    0.0210    1.3203 H   0  0  0  0  0  0  0  0  0  0  0  0
    0.9141   -1.4328    0.7909 H   0  0  0  0  0  0  0  0  0  0  0  0
    0.0109    2.7120   -0.1243 H   0  0  0  0  0  0  0  0  0  0  0  0
   -2.6441    2.6171    0.2600 H   0  0  0  0  0  0  0  0  0  0  0  0
   -3.7787    1.2916    2.2491 H   0  0  0  0  0  0  0  0  0  0  0  0
   -5.7439    2.4543    3.1986 H   0  0  0  0  0  0  0  0  0  0  0  0
  1  2  2  0
  2  3  1  0
  3  4  2  0
  4  5  1  0
  5  6  2  0
  6  7  1  0
  7  8  2  0
  8  9  1  0
  9 10  2  0
 10 11  1  0
 11 12  2  0
 12 13  1  0
 13 14  1  0
 14 15  1  0
 15 16  1  0
 16 17  1  0
 17 18  1  0
 18 19  1  0
 19 20  2  0
 20 21  1  0
 21 22  2  0
 22 23  1  0
 23 24  2  0
 18 25  1  0
 25 26  1  0
 14 27  2  0
 27 28  1  0
 28 29  2  0
  4 30  1  0
 30 31  2  0
 31  1  1  0
 29  5  1  0
 12  7  1  0
 29 13  1  0
 26 15  1  0
 24 19  1  0
  1 32  1  0
  2 33  1  0
  3 34  1  0
  8 35  1  0
  9 36  1  0
 10 37  1  0
 11 38  1  0
 16 39  1  0
 16 40  1  0
 17 41  1  0
 17 42  1  0
 20 43  1  0
 21 44  1  0
 22 45  1  0
 23 46  1  0
 24 47  1  0
 25 48  1  0
 25 49  1  0
 26 50  1  0
 26 51  1  0
 27 52  1  0
 28 53  1  0
 30 54  1  0
 31 55  1  0
M  END
$$$$
