
     RDKit          3D

 55 60  0  0  0  0  0  0  0  0999 V2000
   -6.6416    1.9789    1.9182 C   0  0  0  0  0  0  0  0  0  0  0  0
   -5.3961    1.7853    2.5221 C   0  0  0  0  0  0  0  0  0  0  0  0
   -4.4067    1.0514    1.8652 C   0  0  0  0  0  0  0  0  0  0  0  0
   -4.6676    0.5168    0.5983 C   0  0  0  0  0  0  0  0  0  0  0  0
   -3.6406   -0.2795   -0.1172 C   0  0  0  0  0  0  0  0  0  0  0  0
   -3.9695   -1.4550   -0.5653 N   0  0  0  0  0  0  0  0  0  0  0  0
   -3.0030   -2.2258   -1.2404 C   0  0  0  0  0  0  0  0  0  0  0  0
   -3.4079   -3.4656   -1.7489 C   0  0  0  0  0  0  0  0  0  0  0  0
   -2.5150   -4.2789   -2.4463 C   0  0  0  0  0  0  0  0  0  0  0  0
   -1.2051   -3.8478   -2.6528 C   0  0  0  0  0  0  0  0  0  0  0  0
   -0.7816   -2.6102   -2.1559 C   0  0  0  0  0  0  0  0  0  0  0  0
   -1.6713   -1.8107   -1.4322 C   0  0  0  0  0  0  0  0  0  0  0  0
   -1.3285   -0.5392   -0.9001 N   0  0  0  0  0  0  0  0  0  0  0  0
   -0.1163    0.1585   -0.8600 C   0  0  0  0  0  0  0  0  0  0  0  0
    1.0889   -0.4073   -1.1832 N   0  0  0  0  0  0  0  0  0  0  0  0
    1.6894   -1.3233   -0.1735 C   0  0  0  0  0  0  0  0  0  0  0  0
    2.6143   -0.5705    0.8087 C   0  0  0  0  0  0  0  0  0  0  0  0
    3.6734    0.1551    0.0689 N   0  0  0  0  0  0  0  0  0  0  0  0
    4.7324    0.7042    0.8096 C   0  0  0  0  0  0  0  0  0  0  0  0
    4.6726    0.9627    2.1866 C   0  0  0  0  0  0  0  0  0  0  0  0
    5.7631    1.5124    2.8719 C   0  0  0  0  0  0  0  0  0  0  0  0
    6.9407    1.8073    2.1931 C   0  0  0  0  0  0  0  0  0  0  0  0
    7.0296    1.5495    0.8295 C   0  0  0  0  0  0  0  0  0  0  0  0
    5.9372    1.0043    0.1507 C   0  0  0  0  0  0  0  0  0  0  0  0
    3.1044    1.1076   -0.9205 C   0  0  0  0  0  0  0  0  0  0  0  0
    2.1158    0.4040   -1.8789 C   0  0  0  0  0  0  0  0  0  0  0  0
   -0.4041    1.4527   -0.4548 C   0  0  0  0  0  0  0  0  0  0  0  0
   -1.7681    1.5053   -0.0954 C   0  0  0  0  0  0  0  0  0  0  0  0
   -2.3071    0.2497   -0.3172 C   0  0  0  0  0  0  0  0  0  0  0  0
   -5.9241    0.6910    0.0034 C   0  0  0  0  0  0  0  0  0  0  0  0
   -6.9071    1.4302    0.6622 C   0  0  0  0  0  0  0  0  0  0  0  0
   -7.4111    2.5505    2.4317 H   0  0  0  0  0  0  0  0  0  0  0  0
   -5.2005    2.1984    3.5076 H   0  0  0  0  0  0  0  0  0  0  0  0
   -3.4471    0.8853    2.3507 H   0  0  0  0  0  0  0  0  0  0  0  0
   -4.4348   -3.7927   -1.6005 H   0  0  0  0  0  0  0  0  0  0  0  0
   -2.8454   -5.2410   -2.8350 H   0  0  0  0  0  0  0  0  0  0  0  0
   -0.5111   -4.4707   -3.2113 H   0  0  0  0  0  0  0  0  0  0  0  0
    0.2345   -2.2916   -2.3720 H   0  0  0  0  0  0  0  0  0  0  0  0
    0.9149   -1.8577    0.3883 H   0  0  0  0  0  0  0  0  0  0  0  0
    2.2738   -2.0815   -0.7088 H   0  0  0  0  0  0  0  0  0  0  0  0
    3.0662   -1.3071    1.4854 H   0  0  0  0  0  0  0  0  0  0  0  0
    2.0146    0.1304    1.4027 H   0  0  0  0  0  0  0  0  0  0  0  0
    3.7713    0.7590    2.7557 H   0  0  0  0  0  0  0  0  0  0  0  0
    5.6841    1.7140    3.9373 H   0  0  0  0  0  0  0  0  0  0  0  0
    7.7885    2.2316    2.7228 H   0  0  0  0  0  0  0  0  0  0  0  0
    7.9477    1.7629    0.2909 H   0  0  0  0  0  0  0  0  0  0  0  0
    6.0379    0.7852   -0.9092 H   0  0  0  0  0  0  0  0  0  0  0  0
    3.8904    1.5609   -1.5344 H   0  0  0  0  0  0  0  0  0  0  0  0
    2.5975    1.9206   -0.3893 H   0  0  0  0  0  0  0  0  0  0  0  0
    2.6850   -0.2758   -2.5253 H   0  0  0  0  0  0  0  0  0  0  0  0
    1.6469    1.1405   -2.5449 H   0  0  0  0  0  0  0  0  0  0  0  0
    0.3039    2.2678   -0.3639 H   0  0  0  0  0  0  0  0  0  0  0  0
   -2.2923    2.3706    0.2921 H   0  0  0  0  0  0  0  0  0  0  0  0
   -6.1342    0.2539   -0.9707 H   0  0  0  0  0  0  0  0  0  0  0  0
   -7.8811    1.5735    0.1969 H   0  0  0  0  0  0  0  0  0  0  0  0
  1  2  2  0
  2  3  1  0
  3  4  2  0
  4  5  1  0
  5  6  2  0
  6  7  1  0
  7  8  2  0
  8  9  1  0
  9 10  2  0
 10 11  1  0
 11 12  2  0
 12 13  1  0
 13 14  1  0
 14 15  1  0
 15 16  1  0
 16 17  1  0
 17 18  1  0
 18 19  1  0
 19 20  2  0
 20 21  1  0
 21 22  2  0
 22 23  1  0
 23 24  2  0
 18 25  1  0
 25 26  1  0
 14 27  2  0
 27 28  1  0
 28 29  2  0
  4 30  1  0
 30 31  2  0
 31  1  1  0
 29  5  1  0
 12  7  1  0
 29 13  1  0
 26 15  1  0
 24 19  1  0
  1 32  1  0
  2 33  1  0
  3 34  1  0
  8 35  1  0
  9 36  1  0
 10 37  1  0
 11 38  1  0
 16 39  1  0
 16 40  1  0
 17 41  1  0
 17 42  1  0
 20 43  1  0
 21 44  1  0
 22 45  1  0
 23 46  1  0
 24 47  1  0
 25 48  1  0
 25 49  1  0
 26 50  1  0
 26 51  1  0
 27 52  1  0
 28 53  1  0
 30 54  1  0
 31 55  1  0
M  END
$$$$
