
     RDKit          3D

 56 58  0  0  0  0  0  0  0  0999 V2000
   -0.6958    4.3274    1.8005 C   0  0  0  0  0  0  0  0  0  0  0  0
   -1.5955    3.4626    1.1229 O   0  0  0  0  0  0  0  0  0  0  0  0
   -1.0647    2.4022    0.4289 C   0  0  0  0  0  0  0  0  0  0  0  0
    0.3037    2.1071    0.3616 C   0  0  0  0  0  0  0  0  0  0  0  0
    0.7651    1.0041   -0.3706 C   0  0  0  0  0  0  0  0  0  0  0  0
    2.1904    0.6499   -0.4321 C   0  0  0  0  0  0  0  0  0  0  0  0
    3.1638    1.5590   -0.5948 C   0  0  0  0  0  0  0  0  0  0  0  0
    4.6182    1.2577   -0.6686 C   0  0  0  0  0  0  0  0  0  0  0  0
    5.4247    2.1420   -0.9374 O   0  0  0  0  0  0  0  0  0  0  0  0
    5.0985   -0.1118   -0.4309 C   0  0  0  0  0  0  0  0  0  0  0  0
    5.1799   -0.6211    0.8802 C   0  0  0  0  0  0  0  0  0  0  0  0
    4.7454    0.2036    1.8838 O   0  0  0  0  0  0  0  0  0  0  0  0
    4.9550   -0.2193    3.2258 C   0  0  0  0  0  0  0  0  0  0  0  0
    5.6778   -1.9193    1.0798 C   0  0  0  0  0  0  0  0  0  0  0  0
    6.1000   -2.6963   -0.0040 C   0  0  0  0  0  0  0  0  0  0  0  0
    6.0143   -2.1646   -1.2818 C   0  0  0  0  0  0  0  0  0  0  0  0
    6.4229   -2.9155   -2.3813 O   0  0  0  0  0  0  0  0  0  0  0  0
    6.2102   -2.1394   -3.5172 C   0  0  0  0  0  0  0  0  0  0  0  0
    6.4690   -2.5401   -4.6438 O   0  0  0  0  0  0  0  0  0  0  0  0
    5.5231   -0.5389   -3.2296 S   0  0  0  0  0  0  0  0  0  0  0  0
    5.5206   -0.8851   -1.5069 C   0  0  0  0  0  0  0  0  0  0  0  0
   -0.1638    0.1810   -1.0121 C   0  0  0  0  0  0  0  0  0  0  0  0
   -1.5315    0.4670   -0.9518 C   0  0  0  0  0  0  0  0  0  0  0  0
   -1.9917    1.5785   -0.2415 C   0  0  0  0  0  0  0  0  0  0  0  0
   -3.3096    1.9365   -0.1165 O   0  0  0  0  0  0  0  0  0  0  0  0
   -4.2990    1.2707   -0.8981 C   0  0  0  0  0  0  0  0  0  0  0  0
   -4.8629    0.0722   -0.1356 C   0  0  0  0  0  0  0  0  0  0  0  0
   -5.9611   -0.6220   -0.9476 C   0  0  0  0  0  0  0  0  0  0  0  0
   -6.5940   -1.7970   -0.3340 N   0  0  0  0  0  0  0  0  0  0  0  0
   -5.6638   -2.9025   -0.1265 C   0  0  0  0  0  0  0  0  0  0  0  0
   -7.3093   -1.4771    0.8983 C   0  0  0  0  0  0  0  0  0  0  0  0
   -0.0117    4.8152    1.0987 H   0  0  0  0  0  0  0  0  0  0  0  0
   -1.2864    5.1098    2.2866 H   0  0  0  0  0  0  0  0  0  0  0  0
   -0.1474    3.7924    2.5824 H   0  0  0  0  0  0  0  0  0  0  0  0
    1.0275    2.7214    0.8867 H   0  0  0  0  0  0  0  0  0  0  0  0
    2.4051   -0.4116   -0.3520 H   0  0  0  0  0  0  0  0  0  0  0  0
    2.9420    2.6161   -0.7122 H   0  0  0  0  0  0  0  0  0  0  0  0
    6.0173   -0.3957    3.4255 H   0  0  0  0  0  0  0  0  0  0  0  0
    4.6214    0.5872    3.8854 H   0  0  0  0  0  0  0  0  0  0  0  0
    4.3554   -1.1064    3.4545 H   0  0  0  0  0  0  0  0  0  0  0  0
    5.7515   -2.3557    2.0719 H   0  0  0  0  0  0  0  0  0  0  0  0
    6.4889   -3.6988    0.1538 H   0  0  0  0  0  0  0  0  0  0  0  0
    0.1657   -0.6909   -1.5738 H   0  0  0  0  0  0  0  0  0  0  0  0
   -2.2084   -0.2078   -1.4637 H   0  0  0  0  0  0  0  0  0  0  0  0
   -5.1039    1.9986   -1.0557 H   0  0  0  0  0  0  0  0  0  0  0  0
   -3.9362    1.0092   -1.8988 H   0  0  0  0  0  0  0  0  0  0  0  0
   -5.2497    0.4233    0.8284 H   0  0  0  0  0  0  0  0  0  0  0  0
   -4.0536   -0.6262    0.1007 H   0  0  0  0  0  0  0  0  0  0  0  0
   -5.5501   -0.9221   -1.9203 H   0  0  0  0  0  0  0  0  0  0  0  0
   -6.7471    0.1071   -1.1841 H   0  0  0  0  0  0  0  0  0  0  0  0
   -4.9095   -2.6834    0.6371 H   0  0  0  0  0  0  0  0  0  0  0  0
   -5.1491   -3.1566   -1.0596 H   0  0  0  0  0  0  0  0  0  0  0  0
   -6.2070   -3.8022    0.1850 H   0  0  0  0  0  0  0  0  0  0  0  0
   -6.6370   -1.1896    1.7142 H   0  0  0  0  0  0  0  0  0  0  0  0
   -7.8945   -2.3416    1.2325 H   0  0  0  0  0  0  0  0  0  0  0  0
   -8.0233   -0.6626    0.7328 H   0  0  0  0  0  0  0  0  0  0  0  0
  1  2  1  0
  2  3  1  0
  3  4  2  0
  4  5  1  0
  5  6  1  0
  6  7  2  0
  7  8  1  0
  8  9  2  0
  8 10  1  0
 10 11  2  0
 11 12  1  0
 12 13  1  0
 11 14  1  0
 14 15  2  0
 15 16  1  0
 16 17  1  0
 17 18  1  0
 18 19  2  0
 18 20  1  0
 20 21  1  0
  5 22  2  0
 22 23  1  0
 23 24  2  0
 24 25  1  0
 25 26  1  0
 26 27  1  0
 27 28  1  0
 28 29  1  0
 29 30  1  0
 29 31  1  0
 24  3  1  0
 21 10  1  0
 21 16  2  0
  1 32  1  0
  1 33  1  0
  1 34  1  0
  4 35  1  0
  6 36  1  0
  7 37  1  0
 13 38  1  0
 13 39  1  0
 13 40  1  0
 14 41  1  0
 15 42  1  0
 22 43  1  0
 23 44  1  0
 26 45  1  0
 26 46  1  0
 27 47  1  0
 27 48  1  0
 28 49  1  0
 28 50  1  0
 30 51  1  0
 30 52  1  0
 30 53  1  0
 31 54  1  0
 31 55  1  0
 31 56  1  0
M  END
$$$$
