
     RDKit          3D

 38 40  0  0  0  0  0  0  0  0999 V2000
   -6.0357    0.7828    2.8116 C   0  0  0  0  0  0  0  0  0  0  0  0
   -5.4562    0.9557    1.4389 C   0  0  0  0  0  0  0  0  0  0  0  0
   -5.6980    1.9040    0.7048 O   0  0  0  0  0  0  0  0  0  0  0  0
   -4.6225   -0.1243    1.1695 O   0  0  0  0  0  0  0  0  0  0  0  0
   -4.0095   -0.0936   -0.0878 C   0  0  0  0  0  0  0  0  0  0  0  0
   -4.7580   -0.2647   -1.2502 C   0  0  0  0  0  0  0  0  0  0  0  0
   -4.1062   -0.2679   -2.4809 C   0  0  0  0  0  0  0  0  0  0  0  0
   -2.7161   -0.1222   -2.5376 C   0  0  0  0  0  0  0  0  0  0  0  0
   -1.9593    0.0121   -1.3640 C   0  0  0  0  0  0  0  0  0  0  0  0
   -0.5033    0.1828   -1.4726 C   0  0  0  0  0  0  0  0  0  0  0  0
    0.3734   -0.3953   -0.6347 C   0  0  0  0  0  0  0  0  0  0  0  0
    1.8329   -0.2505   -0.6892 C   0  0  0  0  0  0  0  0  0  0  0  0
    2.5307    0.0143   -1.8613 C   0  0  0  0  0  0  0  0  0  0  0  0
    3.9197    0.1054   -1.8103 C   0  0  0  0  0  0  0  0  0  0  0  0
    4.5838   -0.0782   -0.5934 C   0  0  0  0  0  0  0  0  0  0  0  0
    5.9853    0.0035   -0.4818 C   0  0  0  0  0  0  0  0  0  0  0  0
    6.6095   -0.1898    0.7519 C   0  0  0  0  0  0  0  0  0  0  0  0
    5.8414   -0.4654    1.8782 C   0  0  0  0  0  0  0  0  0  0  0  0
    4.4576   -0.5434    1.7530 C   0  0  0  0  0  0  0  0  0  0  0  0
    3.7208   -0.8161    2.8813 O   0  0  0  0  0  0  0  0  0  0  0  0
    3.7990   -0.3566    0.5407 C   0  0  0  0  0  0  0  0  0  0  0  0
    2.4523   -0.4491    0.4985 N   0  0  0  0  0  0  0  0  0  0  0  0
   -2.6207    0.0313   -0.1303 C   0  0  0  0  0  0  0  0  0  0  0  0
   -6.6954    1.6262    3.0348 H   0  0  0  0  0  0  0  0  0  0  0  0
   -6.6224   -0.1383    2.8529 H   0  0  0  0  0  0  0  0  0  0  0  0
   -5.2330    0.7629    3.5530 H   0  0  0  0  0  0  0  0  0  0  0  0
   -5.8366   -0.3792   -1.2043 H   0  0  0  0  0  0  0  0  0  0  0  0
   -4.6782   -0.3815   -3.3981 H   0  0  0  0  0  0  0  0  0  0  0  0
   -2.2277   -0.1260   -3.5098 H   0  0  0  0  0  0  0  0  0  0  0  0
   -0.1724    0.8167   -2.2905 H   0  0  0  0  0  0  0  0  0  0  0  0
    0.0271   -1.0218    0.1838 H   0  0  0  0  0  0  0  0  0  0  0  0
    2.0203    0.1392   -2.8096 H   0  0  0  0  0  0  0  0  0  0  0  0
    4.4750    0.3145   -2.7210 H   0  0  0  0  0  0  0  0  0  0  0  0
    6.5964    0.2179   -1.3558 H   0  0  0  0  0  0  0  0  0  0  0  0
    7.6916   -0.1256    0.8336 H   0  0  0  0  0  0  0  0  0  0  0  0
    6.3094   -0.6185    2.8460 H   0  0  0  0  0  0  0  0  0  0  0  0
    2.7935   -0.8177    2.5612 H   0  0  0  0  0  0  0  0  0  0  0  0
   -2.0683    0.1569    0.7964 H   0  0  0  0  0  0  0  0  0  0  0  0
  1  2  1  0
  2  3  2  0
  2  4  1  0
  4  5  1  0
  5  6  2  0
  6  7  1  0
  7  8  2  0
  8  9  1  0
  9 10  1  0
 10 11  2  0
 11 12  1  0
 12 13  2  0
 13 14  1  0
 14 15  2  0
 15 16  1  0
 16 17  2  0
 17 18  1  0
 18 19  2  0
 19 20  1  0
 19 21  1  0
 21 22  2  0
  9 23  2  0
 23  5  1  0
 22 12  1  0
 21 15  1  0
  1 24  1  0
  1 25  1  0
  1 26  1  0
  6 27  1  0
  7 28  1  0
  8 29  1  0
 10 30  1  0
 11 31  1  0
 13 32  1  0
 14 33  1  0
 16 34  1  0
 17 35  1  0
 18 36  1  0
 20 37  1  0
 23 38  1  0
M  END
$$$$
