
     RDKit          3D

 43 45  0  0  0  0  0  0  0  0999 V2000
    0.0955    4.2532    0.4561 C   0  0  0  0  0  0  0  0  0  0  0  0
   -1.0226    3.6141   -0.3120 C   0  0  0  0  0  0  0  0  0  0  0  0
   -1.1350    3.6660   -1.5302 O   0  0  0  0  0  0  0  0  0  0  0  0
   -1.8835    2.9983    0.5882 O   0  0  0  0  0  0  0  0  0  0  0  0
   -2.9119    2.2894   -0.0413 C   0  0  0  0  0  0  0  0  0  0  0  0
   -4.1512    2.9164   -0.1801 C   0  0  0  0  0  0  0  0  0  0  0  0
   -5.2060    2.2207   -0.7686 C   0  0  0  0  0  0  0  0  0  0  0  0
   -5.0209    0.9062   -1.2014 C   0  0  0  0  0  0  0  0  0  0  0  0
   -3.7809    0.2795   -1.0427 C   0  0  0  0  0  0  0  0  0  0  0  0
   -2.7134    0.9634   -0.4505 C   0  0  0  0  0  0  0  0  0  0  0  0
   -1.4222    0.2930   -0.2864 C   0  0  0  0  0  0  0  0  0  0  0  0
   -0.5386    0.2296   -1.2951 C   0  0  0  0  0  0  0  0  0  0  0  0
    0.7841   -0.3988   -1.1866 C   0  0  0  0  0  0  0  0  0  0  0  0
    1.6276   -0.4356   -2.2863 C   0  0  0  0  0  0  0  0  0  0  0  0
    2.8746   -1.0375   -2.1504 C   0  0  0  0  0  0  0  0  0  0  0  0
    3.2521   -1.5908   -0.9223 C   0  0  0  0  0  0  0  0  0  0  0  0
    4.5092   -2.2023   -0.7466 C   0  0  0  0  0  0  0  0  0  0  0  0
    4.8752   -2.7383    0.4880 C   0  0  0  0  0  0  0  0  0  0  0  0
    3.9871   -2.6742    1.5539 C   0  0  0  0  0  0  0  0  0  0  0  0
    2.7355   -2.0835    1.3597 C   0  0  0  0  0  0  0  0  0  0  0  0
    1.8733   -2.0117    2.4638 O   0  0  0  0  0  0  0  0  0  0  0  0
    0.8742   -2.9735    2.3996 C   0  0  0  0  0  0  0  0  0  0  0  0
   -0.1457   -2.6794    3.4594 C   0  0  0  0  0  0  0  0  0  0  0  0
    0.8301   -3.9445    1.6552 O   0  0  0  0  0  0  0  0  0  0  0  0
    2.3361   -1.5157    0.1456 C   0  0  0  0  0  0  0  0  0  0  0  0
    1.1292   -0.9191    0.0134 N   0  0  0  0  0  0  0  0  0  0  0  0
   -0.2977    5.0634    1.0754 H   0  0  0  0  0  0  0  0  0  0  0  0
    0.8262    4.6660   -0.2451 H   0  0  0  0  0  0  0  0  0  0  0  0
    0.5977    3.5044    1.0735 H   0  0  0  0  0  0  0  0  0  0  0  0
   -4.2921    3.9379    0.1596 H   0  0  0  0  0  0  0  0  0  0  0  0
   -6.1729    2.7018   -0.8917 H   0  0  0  0  0  0  0  0  0  0  0  0
   -5.8442    0.3659   -1.6622 H   0  0  0  0  0  0  0  0  0  0  0  0
   -3.6546   -0.7467   -1.3809 H   0  0  0  0  0  0  0  0  0  0  0  0
   -1.2121   -0.1223    0.6952 H   0  0  0  0  0  0  0  0  0  0  0  0
   -0.7835    0.6743   -2.2568 H   0  0  0  0  0  0  0  0  0  0  0  0
    1.3314   -0.0062   -3.2374 H   0  0  0  0  0  0  0  0  0  0  0  0
    3.5443   -1.0719   -3.0055 H   0  0  0  0  0  0  0  0  0  0  0  0
    5.2124   -2.2608   -1.5748 H   0  0  0  0  0  0  0  0  0  0  0  0
    5.8486   -3.2053    0.6142 H   0  0  0  0  0  0  0  0  0  0  0  0
    4.2555   -3.0873    2.5217 H   0  0  0  0  0  0  0  0  0  0  0  0
   -1.0117   -3.3322    3.3192 H   0  0  0  0  0  0  0  0  0  0  0  0
   -0.4834   -1.6431    3.3738 H   0  0  0  0  0  0  0  0  0  0  0  0
    0.2842   -2.8627    4.4469 H   0  0  0  0  0  0  0  0  0  0  0  0
  1  2  1  0
  2  3  2  0
  2  4  1  0
  4  5  1  0
  5  6  2  0
  6  7  1  0
  7  8  2  0
  8  9  1  0
  9 10  2  0
 10 11  1  0
 11 12  2  0
 12 13  1  0
 13 14  2  0
 14 15  1  0
 15 16  2  0
 16 17  1  0
 17 18  2  0
 18 19  1  0
 19 20  2  0
 20 21  1  0
 21 22  1  0
 22 23  1  0
 22 24  2  0
 20 25  1  0
 25 26  2  0
 10  5  1  0
 26 13  1  0
 25 16  1  0
  1 27  1  0
  1 28  1  0
  1 29  1  0
  6 30  1  0
  7 31  1  0
  8 32  1  0
  9 33  1  0
 11 34  1  0
 12 35  1  0
 14 36  1  0
 15 37  1  0
 17 38  1  0
 18 39  1  0
 19 40  1  0
 23 41  1  0
 23 42  1  0
 23 43  1  0
M  END
$$$$
