
     RDKit          3D

 56 58  0  0  0  0  0  0  0  0999 V2000
   -1.1437   -1.1880   -4.3018 C   0  0  0  0  0  0  0  0  0  0  0  0
   -1.8628   -0.9068   -3.1098 O   0  0  0  0  0  0  0  0  0  0  0  0
   -1.1414   -0.5419   -1.9992 C   0  0  0  0  0  0  0  0  0  0  0  0
    0.2547   -0.4272   -1.9642 C   0  0  0  0  0  0  0  0  0  0  0  0
    0.9131   -0.0428   -0.7874 C   0  0  0  0  0  0  0  0  0  0  0  0
    2.3766    0.0588   -0.7158 C   0  0  0  0  0  0  0  0  0  0  0  0
    3.1036    0.6993   -1.6437 C   0  0  0  0  0  0  0  0  0  0  0  0
    4.5837    0.8384   -1.6313 C   0  0  0  0  0  0  0  0  0  0  0  0
    5.1671    1.3837   -2.5622 O   0  0  0  0  0  0  0  0  0  0  0  0
    5.3629    0.2915   -0.5112 C   0  0  0  0  0  0  0  0  0  0  0  0
    5.4561    0.9971    0.7042 C   0  0  0  0  0  0  0  0  0  0  0  0
    4.7454    2.1645    0.7898 O   0  0  0  0  0  0  0  0  0  0  0  0
    4.9982    3.0101    1.9053 C   0  0  0  0  0  0  0  0  0  0  0  0
    6.2356    0.4664    1.7453 C   0  0  0  0  0  0  0  0  0  0  0  0
    6.9238   -0.7398    1.5776 C   0  0  0  0  0  0  0  0  0  0  0  0
    6.8196   -1.4066    0.3660 C   0  0  0  0  0  0  0  0  0  0  0  0
    7.4897   -2.6113    0.1699 O   0  0  0  0  0  0  0  0  0  0  0  0
    7.1919   -3.0481   -1.1178 C   0  0  0  0  0  0  0  0  0  0  0  0
    7.6364   -4.0913   -1.5764 O   0  0  0  0  0  0  0  0  0  0  0  0
    6.1143   -2.0038   -2.0475 S   0  0  0  0  0  0  0  0  0  0  0  0
    6.0493   -0.9064   -0.6770 C   0  0  0  0  0  0  0  0  0  0  0  0
    0.1615    0.2008    0.3648 C   0  0  0  0  0  0  0  0  0  0  0  0
   -1.2314    0.0918    0.3403 C   0  0  0  0  0  0  0  0  0  0  0  0
   -1.8912   -0.2710   -0.8375 C   0  0  0  0  0  0  0  0  0  0  0  0
   -3.2519   -0.4101   -0.9481 O   0  0  0  0  0  0  0  0  0  0  0  0
   -4.0567    0.1073    0.1130 C   0  0  0  0  0  0  0  0  0  0  0  0
   -5.5169   -0.0047   -0.3173 C   0  0  0  0  0  0  0  0  0  0  0  0
   -6.4834    0.6498    0.6741 C   0  0  0  0  0  0  0  0  0  0  0  0
   -6.3835    0.1374    2.0513 N   0  0  0  0  0  0  0  0  0  0  0  0
   -6.8394   -1.2521    2.1493 C   0  0  0  0  0  0  0  0  0  0  0  0
   -7.1739    0.9779    2.9559 C   0  0  0  0  0  0  0  0  0  0  0  0
   -1.8700   -1.4557   -5.0749 H   0  0  0  0  0  0  0  0  0  0  0  0
   -0.5967   -0.3061   -4.6513 H   0  0  0  0  0  0  0  0  0  0  0  0
   -0.4734   -2.0430   -4.1663 H   0  0  0  0  0  0  0  0  0  0  0  0
    0.8506   -0.6439   -2.8446 H   0  0  0  0  0  0  0  0  0  0  0  0
    2.8285   -0.4004    0.1581 H   0  0  0  0  0  0  0  0  0  0  0  0
    2.6369    1.1779   -2.5002 H   0  0  0  0  0  0  0  0  0  0  0  0
    4.4490    3.9430    1.7478 H   0  0  0  0  0  0  0  0  0  0  0  0
    6.0617    3.2595    1.9859 H   0  0  0  0  0  0  0  0  0  0  0  0
    4.6268    2.5568    2.8293 H   0  0  0  0  0  0  0  0  0  0  0  0
    6.3246    0.9700    2.7040 H   0  0  0  0  0  0  0  0  0  0  0  0
    7.5284   -1.1468    2.3834 H   0  0  0  0  0  0  0  0  0  0  0  0
    0.6507    0.4864    1.2937 H   0  0  0  0  0  0  0  0  0  0  0  0
   -1.7726    0.2877    1.2602 H   0  0  0  0  0  0  0  0  0  0  0  0
   -3.8904   -0.4831    1.0208 H   0  0  0  0  0  0  0  0  0  0  0  0
   -3.8082    1.1597    0.2953 H   0  0  0  0  0  0  0  0  0  0  0  0
   -5.7728   -1.0576   -0.4845 H   0  0  0  0  0  0  0  0  0  0  0  0
   -5.6379    0.4758   -1.2970 H   0  0  0  0  0  0  0  0  0  0  0  0
   -6.2606    1.7251    0.6772 H   0  0  0  0  0  0  0  0  0  0  0  0
   -7.5093    0.5466    0.2967 H   0  0  0  0  0  0  0  0  0  0  0  0
   -7.8727   -1.3739    1.8053 H   0  0  0  0  0  0  0  0  0  0  0  0
   -6.7804   -1.6028    3.1861 H   0  0  0  0  0  0  0  0  0  0  0  0
   -6.1979   -1.9217    1.5685 H   0  0  0  0  0  0  0  0  0  0  0  0
   -7.0723    0.6320    3.9907 H   0  0  0  0  0  0  0  0  0  0  0  0
   -6.8107    2.0115    2.9373 H   0  0  0  0  0  0  0  0  0  0  0  0
   -8.2385    0.9801    2.6948 H   0  0  0  0  0  0  0  0  0  0  0  0
  1  2  1  0
  2  3  1  0
  3  4  2  0
  4  5  1  0
  5  6  1  0
  6  7  2  0
  7  8  1  0
  8  9  2  0
  8 10  1  0
 10 11  2  0
 11 12  1  0
 12 13  1  0
 11 14  1  0
 14 15  2  0
 15 16  1  0
 16 17  1  0
 17 18  1  0
 18 19  2  0
 18 20  1  0
 20 21  1  0
  5 22  2  0
 22 23  1  0
 23 24  2  0
 24 25  1  0
 25 26  1  0
 26 27  1  0
 27 28  1  0
 28 29  1  0
 29 30  1  0
 29 31  1  0
 24  3  1  0
 21 10  1  0
 21 16  2  0
  1 32  1  0
  1 33  1  0
  1 34  1  0
  4 35  1  0
  6 36  1  0
  7 37  1  0
 13 38  1  0
 13 39  1  0
 13 40  1  0
 14 41  1  0
 15 42  1  0
 22 43  1  0
 23 44  1  0
 26 45  1  0
 26 46  1  0
 27 47  1  0
 27 48  1  0
 28 49  1  0
 28 50  1  0
 30 51  1  0
 30 52  1  0
 30 53  1  0
 31 54  1  0
 31 55  1  0
 31 56  1  0
M  END
$$$$
