
     RDKit          3D

 38 40  0  0  0  0  0  0  0  0999 V2000
   -6.4498    1.3226    2.5278 C   0  0  0  0  0  0  0  0  0  0  0  0
   -5.6458    1.1947    1.2679 C   0  0  0  0  0  0  0  0  0  0  0  0
   -5.6936    1.9884    0.3383 O   0  0  0  0  0  0  0  0  0  0  0  0
   -4.8667    0.0459    1.3531 O   0  0  0  0  0  0  0  0  0  0  0  0
   -4.0610   -0.2023    0.2365 C   0  0  0  0  0  0  0  0  0  0  0  0
   -4.6259   -0.5606   -0.9856 C   0  0  0  0  0  0  0  0  0  0  0  0
   -3.7886   -0.8566   -2.0586 C   0  0  0  0  0  0  0  0  0  0  0  0
   -2.3998   -0.8025   -1.8994 C   0  0  0  0  0  0  0  0  0  0  0  0
   -1.8328   -0.4474   -0.6661 C   0  0  0  0  0  0  0  0  0  0  0  0
   -0.3797   -0.4170   -0.4580 C   0  0  0  0  0  0  0  0  0  0  0  0
    0.4839    0.1233   -1.3339 C   0  0  0  0  0  0  0  0  0  0  0  0
    1.9398    0.1721   -1.1304 C   0  0  0  0  0  0  0  0  0  0  0  0
    2.7497    0.7958   -2.0716 C   0  0  0  0  0  0  0  0  0  0  0  0
    4.1255    0.8281   -1.8583 C   0  0  0  0  0  0  0  0  0  0  0  0
    4.6638    0.2366   -0.7111 C   0  0  0  0  0  0  0  0  0  0  0  0
    6.0462    0.2380   -0.4426 C   0  0  0  0  0  0  0  0  0  0  0  0
    6.5430   -0.3631    0.7155 C   0  0  0  0  0  0  0  0  0  0  0  0
    5.6661   -0.9679    1.6099 C   0  0  0  0  0  0  0  0  0  0  0  0
    4.3027   -0.9626    1.3313 C   0  0  0  0  0  0  0  0  0  0  0  0
    3.4564   -1.5685    2.2296 O   0  0  0  0  0  0  0  0  0  0  0  0
    3.7694   -0.3732    0.1883 C   0  0  0  0  0  0  0  0  0  0  0  0
    2.4344   -0.4083   -0.0113 N   0  0  0  0  0  0  0  0  0  0  0  0
   -2.6778   -0.1660    0.4131 C   0  0  0  0  0  0  0  0  0  0  0  0
   -7.0521    2.2347    2.4818 H   0  0  0  0  0  0  0  0  0  0  0  0
   -5.7809    1.3914    3.3894 H   0  0  0  0  0  0  0  0  0  0  0  0
   -7.1209    0.4658    2.6277 H   0  0  0  0  0  0  0  0  0  0  0  0
   -5.7038   -0.6060   -1.1071 H   0  0  0  0  0  0  0  0  0  0  0  0
   -4.2142   -1.1350   -3.0191 H   0  0  0  0  0  0  0  0  0  0  0  0
   -1.7656   -1.0558   -2.7459 H   0  0  0  0  0  0  0  0  0  0  0  0
   -0.0273   -0.8416    0.4791 H   0  0  0  0  0  0  0  0  0  0  0  0
    0.1189    0.5744   -2.2519 H   0  0  0  0  0  0  0  0  0  0  0  0
    2.3294    1.2555   -2.9599 H   0  0  0  0  0  0  0  0  0  0  0  0
    4.7683    1.3147   -2.5873 H   0  0  0  0  0  0  0  0  0  0  0  0
    6.7418    0.7080   -1.1345 H   0  0  0  0  0  0  0  0  0  0  0  0
    7.6109   -0.3593    0.9188 H   0  0  0  0  0  0  0  0  0  0  0  0
    6.0343   -1.4403    2.5157 H   0  0  0  0  0  0  0  0  0  0  0  0
    2.5683   -1.4485    1.8307 H   0  0  0  0  0  0  0  0  0  0  0  0
   -2.2665    0.0924    1.3849 H   0  0  0  0  0  0  0  0  0  0  0  0
  1  2  1  0
  2  3  2  0
  2  4  1  0
  4  5  1  0
  5  6  2  0
  6  7  1  0
  7  8  2  0
  8  9  1  0
  9 10  1  0
 10 11  2  0
 11 12  1  0
 12 13  2  0
 13 14  1  0
 14 15  2  0
 15 16  1  0
 16 17  2  0
 17 18  1  0
 18 19  2  0
 19 20  1  0
 19 21  1  0
 21 22  2  0
  9 23  2  0
 23  5  1  0
 22 12  1  0
 21 15  1  0
  1 24  1  0
  1 25  1  0
  1 26  1  0
  6 27  1  0
  7 28  1  0
  8 29  1  0
 10 30  1  0
 11 31  1  0
 13 32  1  0
 14 33  1  0
 16 34  1  0
 17 35  1  0
 18 36  1  0
 20 37  1  0
 23 38  1  0
M  END
$$$$
