
     RDKit          3D

 21 21  0  0  0  0  0  0  0  0999 V2000
   -3.5073    3.2424    0.0117 C   0  0  0  0  0  3  0  0  0  0  0  0
   -2.7911    2.3658   -0.2866 N   0  0  0  0  0  4  0  0  0  0  0  0
   -1.9038    1.2735   -0.6633 C   0  0  0  0  0  0  0  0  0  0  0  0
   -0.7114    1.0583   -0.1033 C   0  0  0  0  0  0  0  0  0  0  0  0
   -0.0801   -0.0944   -0.6916 C   0  0  0  0  0  0  0  0  0  0  0  0
    1.1126   -0.6270   -0.3886 C   0  0  0  0  0  0  0  0  0  0  0  0
    2.0895   -0.1534    0.6531 C   0  0  0  0  0  0  0  0  0  0  0  0
    2.3367   -1.2206    1.7006 C   0  0  0  0  0  0  0  0  0  0  0  0
    2.0119   -2.3959    1.6667 O   0  0  0  0  0  0  0  0  0  0  0  0
    3.0367   -0.7412    2.7508 O   0  0  0  0  0  0  0  0  0  0  0  0
   -1.0157   -0.6396   -1.7471 C   0  0  0  0  0  0  0  0  0  0  0  0
   -2.2428    0.2794   -1.7192 C   0  0  0  0  0  0  0  0  0  0  0  0
   -0.2885    1.6683    0.6810 H   0  0  0  0  0  0  0  0  0  0  0  0
    1.4294   -1.5138   -0.9389 H   0  0  0  0  0  0  0  0  0  0  0  0
    1.7345    0.7475    1.1614 H   0  0  0  0  0  0  0  0  0  0  0  0
    3.0446    0.0745    0.1681 H   0  0  0  0  0  0  0  0  0  0  0  0
    3.1373   -1.5180    3.3406 H   0  0  0  0  0  0  0  0  0  0  0  0
   -0.5447   -0.6196   -2.7366 H   0  0  0  0  0  0  0  0  0  0  0  0
   -1.3048   -1.6724   -1.5214 H   0  0  0  0  0  0  0  0  0  0  0  0
   -2.3943    0.7654   -2.6886 H   0  0  0  0  0  0  0  0  0  0  0  0
   -3.1487   -0.2790   -1.4620 H   0  0  0  0  0  0  0  0  0  0  0  0
  1  2  3  0
  2  3  1  0
  3  4  2  0
  4  5  1  0
  5  6  2  3
  6  7  1  0
  7  8  1  0
  8  9  2  0
  8 10  1  0
  5 11  1  0
 11 12  1  0
 12  3  1  0
  4 13  1  0
  6 14  1  0
  7 15  1  0
  7 16  1  0
 10 17  1  0
 11 18  1  0
 11 19  1  0
 12 20  1  0
 12 21  1  0
M  CHG  2   1  -1   2   1
M  END
$$$$
