
     RDKit          3D

 43 45  0  0  0  0  0  0  0  0999 V2000
   -0.0420    3.1939    1.5836 C   0  0  0  0  0  0  0  0  0  0  0  0
   -1.0785    3.0214    0.5132 C   0  0  0  0  0  0  0  0  0  0  0  0
   -1.0162    3.5364   -0.5958 O   0  0  0  0  0  0  0  0  0  0  0  0
   -2.1000    2.2180    1.0094 O   0  0  0  0  0  0  0  0  0  0  0  0
   -3.0324    1.8620    0.0279 C   0  0  0  0  0  0  0  0  0  0  0  0
   -4.2244    2.5835   -0.0407 C   0  0  0  0  0  0  0  0  0  0  0  0
   -5.1808    2.2285   -0.9904 C   0  0  0  0  0  0  0  0  0  0  0  0
   -4.9470    1.1533   -1.8508 C   0  0  0  0  0  0  0  0  0  0  0  0
   -3.7566    0.4240   -1.7634 C   0  0  0  0  0  0  0  0  0  0  0  0
   -2.7859    0.7684   -0.8168 C   0  0  0  0  0  0  0  0  0  0  0  0
   -1.5452   -0.0013   -0.6955 C   0  0  0  0  0  0  0  0  0  0  0  0
   -0.6242   -0.0352   -1.6718 C   0  0  0  0  0  0  0  0  0  0  0  0
    0.6789   -0.6976   -1.5270 C   0  0  0  0  0  0  0  0  0  0  0  0
    1.5760   -0.7174   -2.5839 C   0  0  0  0  0  0  0  0  0  0  0  0
    2.8177   -1.3159   -2.3922 C   0  0  0  0  0  0  0  0  0  0  0  0
    3.1417   -1.8701   -1.1483 C   0  0  0  0  0  0  0  0  0  0  0  0
    4.3902   -2.4796   -0.9147 C   0  0  0  0  0  0  0  0  0  0  0  0
    4.6931   -3.0301    0.3313 C   0  0  0  0  0  0  0  0  0  0  0  0
    3.7559   -2.9699    1.3549 C   0  0  0  0  0  0  0  0  0  0  0  0
    2.5292   -2.3458    1.1154 C   0  0  0  0  0  0  0  0  0  0  0  0
    1.5952   -2.3348    2.1635 O   0  0  0  0  0  0  0  0  0  0  0  0
    1.4411   -1.0725    2.7216 C   0  0  0  0  0  0  0  0  0  0  0  0
    0.2461   -1.0902    3.6276 C   0  0  0  0  0  0  0  0  0  0  0  0
    2.1664   -0.0985    2.5631 O   0  0  0  0  0  0  0  0  0  0  0  0
    2.1769   -1.8022   -0.1243 C   0  0  0  0  0  0  0  0  0  0  0  0
    0.9636   -1.2403   -0.3211 N   0  0  0  0  0  0  0  0  0  0  0  0
    0.3282    2.2159    1.9015 H   0  0  0  0  0  0  0  0  0  0  0  0
   -0.4696    3.7380    2.4291 H   0  0  0  0  0  0  0  0  0  0  0  0
    0.7993    3.7673    1.1838 H   0  0  0  0  0  0  0  0  0  0  0  0
   -4.4022    3.4177    0.6306 H   0  0  0  0  0  0  0  0  0  0  0  0
   -6.1094    2.7891   -1.0619 H   0  0  0  0  0  0  0  0  0  0  0  0
   -5.6956    0.8786   -2.5899 H   0  0  0  0  0  0  0  0  0  0  0  0
   -3.5975   -0.4184   -2.4323 H   0  0  0  0  0  0  0  0  0  0  0  0
   -1.3752   -0.4816    0.2646 H   0  0  0  0  0  0  0  0  0  0  0  0
   -0.8006    0.4867   -2.6080 H   0  0  0  0  0  0  0  0  0  0  0  0
    1.3286   -0.2711   -3.5412 H   0  0  0  0  0  0  0  0  0  0  0  0
    3.5300   -1.3374   -3.2131 H   0  0  0  0  0  0  0  0  0  0  0  0
    5.1341   -2.5292   -1.7073 H   0  0  0  0  0  0  0  0  0  0  0  0
    5.6579   -3.5015    0.5002 H   0  0  0  0  0  0  0  0  0  0  0  0
    3.9757   -3.3942    2.3297 H   0  0  0  0  0  0  0  0  0  0  0  0
   -0.6346   -1.4257    3.0736 H   0  0  0  0  0  0  0  0  0  0  0  0
    0.0543   -0.0770    3.9925 H   0  0  0  0  0  0  0  0  0  0  0  0
    0.4378   -1.7448    4.4810 H   0  0  0  0  0  0  0  0  0  0  0  0
  1  2  1  0
  2  3  2  0
  2  4  1  0
  4  5  1  0
  5  6  2  0
  6  7  1  0
  7  8  2  0
  8  9  1  0
  9 10  2  0
 10 11  1  0
 11 12  2  0
 12 13  1  0
 13 14  2  0
 14 15  1  0
 15 16  2  0
 16 17  1  0
 17 18  2  0
 18 19  1  0
 19 20  2  0
 20 21  1  0
 21 22  1  0
 22 23  1  0
 22 24  2  0
 20 25  1  0
 25 26  2  0
 10  5  1  0
 26 13  1  0
 25 16  1  0
  1 27  1  0
  1 28  1  0
  1 29  1  0
  6 30  1  0
  7 31  1  0
  8 32  1  0
  9 33  1  0
 11 34  1  0
 12 35  1  0
 14 36  1  0
 15 37  1  0
 17 38  1  0
 18 39  1  0
 19 40  1  0
 23 41  1  0
 23 42  1  0
 23 43  1  0
M  END
$$$$
