
     RDKit          3D

 45 46  0  0  0  0  0  0  0  0999 V2000
    7.3237    1.3026    1.6073 C   0  0  0  0  0  0  0  0  0  0  0  0
    7.1122    0.4105    0.5206 O   0  0  0  0  0  0  0  0  0  0  0  0
    5.8248    0.0247    0.2715 C   0  0  0  0  0  0  0  0  0  0  0  0
    4.6977    0.4110    0.9974 C   0  0  0  0  0  0  0  0  0  0  0  0
    3.4256   -0.0556    0.6349 C   0  0  0  0  0  0  0  0  0  0  0  0
    3.2665   -0.9094   -0.4655 C   0  0  0  0  0  0  0  0  0  0  0  0
    1.9332   -1.4178   -0.8905 C   0  0  0  0  0  0  0  0  0  0  0  0
    1.8738   -2.4296   -1.5875 O   0  0  0  0  0  0  0  0  0  0  0  0
    0.7099   -0.6639   -0.5056 C   0  0  0  0  0  0  0  0  0  0  0  0
   -0.4959   -1.2023   -0.7443 C   0  0  0  0  0  0  0  0  0  0  0  0
   -1.7552   -0.5135   -0.4355 C   0  0  0  0  0  0  0  0  0  0  0  0
   -1.9889    0.0560    0.8254 C   0  0  0  0  0  0  0  0  0  0  0  0
   -3.2022    0.6899    1.1039 C   0  0  0  0  0  0  0  0  0  0  0  0
   -3.5238    1.2786    2.2996 O   0  0  0  0  0  0  0  0  0  0  0  0
   -2.5154    1.3365    3.2979 C   0  0  0  0  0  0  0  0  0  0  0  0
   -4.1918    0.7278    0.1066 C   0  0  0  0  0  0  0  0  0  0  0  0
   -5.3733    1.3919    0.3573 O   0  0  0  0  0  0  0  0  0  0  0  0
   -6.3399    0.4795    0.8751 C   0  0  0  0  0  0  0  0  0  0  0  0
   -3.9727    0.1681   -1.1636 C   0  0  0  0  0  0  0  0  0  0  0  0
   -5.0018    0.2786   -2.0627 O   0  0  0  0  0  0  0  0  0  0  0  0
   -4.7534   -0.1399   -3.3976 C   0  0  0  0  0  0  0  0  0  0  0  0
   -2.7541   -0.4648   -1.4187 C   0  0  0  0  0  0  0  0  0  0  0  0
    4.4102   -1.3130   -1.1703 C   0  0  0  0  0  0  0  0  0  0  0  0
    4.3688   -2.1759   -2.2347 O   0  0  0  0  0  0  0  0  0  0  0  0
    5.6730   -0.8423   -0.8116 C   0  0  0  0  0  0  0  0  0  0  0  0
    7.0270    0.8446    2.5566 H   0  0  0  0  0  0  0  0  0  0  0  0
    8.3956    1.5160    1.6612 H   0  0  0  0  0  0  0  0  0  0  0  0
    6.8025    2.2519    1.4460 H   0  0  0  0  0  0  0  0  0  0  0  0
    4.7739    1.0706    1.8563 H   0  0  0  0  0  0  0  0  0  0  0  0
    2.5817    0.2500    1.2458 H   0  0  0  0  0  0  0  0  0  0  0  0
    0.8122    0.3257   -0.0805 H   0  0  0  0  0  0  0  0  0  0  0  0
   -0.5893   -2.1792   -1.2164 H   0  0  0  0  0  0  0  0  0  0  0  0
   -1.2152   -0.0187    1.5817 H   0  0  0  0  0  0  0  0  0  0  0  0
   -1.6370    1.8860    2.9435 H   0  0  0  0  0  0  0  0  0  0  0  0
   -2.9239    1.8799    4.1553 H   0  0  0  0  0  0  0  0  0  0  0  0
   -2.2431    0.3327    3.6399 H   0  0  0  0  0  0  0  0  0  0  0  0
   -6.0073    0.0389    1.8214 H   0  0  0  0  0  0  0  0  0  0  0  0
   -7.2587    1.0408    1.0697 H   0  0  0  0  0  0  0  0  0  0  0  0
   -6.5737   -0.3095    0.1520 H   0  0  0  0  0  0  0  0  0  0  0  0
   -5.6438    0.0893   -3.9910 H   0  0  0  0  0  0  0  0  0  0  0  0
   -4.5918   -1.2217   -3.4457 H   0  0  0  0  0  0  0  0  0  0  0  0
   -3.9117    0.4066   -3.8360 H   0  0  0  0  0  0  0  0  0  0  0  0
   -2.5535   -0.9230   -2.3825 H   0  0  0  0  0  0  0  0  0  0  0  0
    3.4599   -2.5482   -2.2893 H   0  0  0  0  0  0  0  0  0  0  0  0
    6.5450   -1.1603   -1.3779 H   0  0  0  0  0  0  0  0  0  0  0  0
  1  2  1  0
  2  3  1  0
  3  4  2  0
  4  5  1  0
  5  6  2  0
  6  7  1  0
  7  8  2  0
  7  9  1  0
  9 10  2  0
 10 11  1  0
 11 12  2  0
 12 13  1  0
 13 14  1  0
 14 15  1  0
 13 16  2  0
 16 17  1  0
 17 18  1  0
 16 19  1  0
 19 20  1  0
 20 21  1  0
 19 22  2  0
  6 23  1  0
 23 24  1  0
 23 25  2  0
 25  3  1  0
 22 11  1  0
  1 26  1  0
  1 27  1  0
  1 28  1  0
  4 29  1  0
  5 30  1  0
  9 31  1  0
 10 32  1  0
 12 33  1  0
 15 34  1  0
 15 35  1  0
 15 36  1  0
 18 37  1  0
 18 38  1  0
 18 39  1  0
 21 40  1  0
 21 41  1  0
 21 42  1  0
 22 43  1  0
 24 44  1  0
 25 45  1  0
M  END
$$$$
